version 3
run FRER-0-20251021-14:07:51-30364
attr configname FRER
attr datetime 20251021-14:07:51
attr datetimef 20251021-140751
attr experiment FRER
attr inifile omnetpp.ini
attr iterationvars "$packetLength=1000, $bitrate=52"
attr iterationvarsd packetLength=1000/bitrate=52
attr iterationvarsf packetLength=1000,bitrate=52-
attr measurement "$packetLength=1000, $bitrate=52"
attr network BaseNetwork
attr processid 30364
attr repetition 0
attr replication #0
attr resultdir results
attr runnumber 0
attr seedset 0
itervar bitrate 52
itervar packetLength 1000
config image-path ../../inet4.5/images;../../mlo/images
config extends SLO
config description "Enables FRER over MLO"
config *.**.classifier.ipProtocolUpMap "\"\""
config *.**.classifier.udpPortUpMap "\"5000 BE\""
config *.**.classifier.tcpPortUpMap "\"\""
config *.**.ieee8021r.protocol.rTagHeaderInserter.nextProtocol "\"ieee80211be\""
config *.**.umac.forwardingTable "{streamA1: \"lmac0\", streamA2: \"lmac1\"}"
config *.**.ieee8021r.policy.streamIdentifier.identifier.mapping "[{stream: \"streamA\", packetFilter: expr(udp.destPort == 5000), sequenceNumbering: true}]"
config *.**.ieee8021r.policy.streamRelay.splitter.mapping "{streamA: [\"streamA1\", \"streamA2\"]}"
config *.**.ieee8021r.policy.streamCoder.decoder.mapping "[{stream: \"streamA1\", interface: \"lmac0\", destination: \"sta2\"}, {stream: \"streamA2\", interface: \"lmac1\", destination: \"sta2\"}]"
config *.**.ieee8021r.policy.streamRelay.merger.mapping "{streamA1: \"streamA\", streamA2: \"streamA\"}"
config *.**.ieee8021r.policy.streamRelay.merger.bufferSize 10000
config *.sta2.ieee8021r.policy.streamRelay.merger.mapping "{streamA1: \"\", streamA2: \"\"}"
config extends General
config description "Initiates UDP traffic over a single (default 2.4 GHz) interface"
config *.sta1.numApps 1
config *.sta1.app[0].typename UdpBasicApp
config *.sta1.app[0].destAddresses "\"sta2\""
config *.sta1.app[0].localPort 5000
config *.sta1.app[0].destPort 5000
config *.sta1.app[0].packetName "\"UDPData:0\""
config *.sta1.app[0].messageLength 1000B
config *.sta1.app[0].sendInterval "exponential(1028 * 8 / 52 * 3.5ms)"
config *.sta1.app[0].startTime 1s
config *.sta1.app[0].stopTime 11s
config *.sta2.numApps 1
config *.sta2.app[0].typename UdpSink
config *.sta2.app[0].localPort 5000
config network BaseNetwork
config description "Default configuration for a small MLO-FRER example"
config sim-time-limit 15s
config record-eventlog false
config repeat 1
config **.vector-recording false
config seed-0-mt "0 + 123752"
config **.printPkDetail false
config **.hasStatus true
config **.crcMode "\"computed\""
config **.fcsMode "\"computed\""
config **.numMediumVisualizers 4
config **.displaySignals true
config *.visualizer.mediumVisualizer[0].nodeFilter "\"sta1\""
config *.visualizer.mediumVisualizer[0].signalColor "\"red\""
config *.visualizer.mediumVisualizer[1].nodeFilter "\"sta2\""
config *.visualizer.mediumVisualizer[1].signalColor "\"blue\""
config *.visualizer.mediumVisualizer[2].nodeFilter "\"ap\""
config *.visualizer.mediumVisualizer[2].interfaceFilter "\"wlan[0]\""
config *.visualizer.mediumVisualizer[2].signalColor "\"yellow\""
config *.visualizer.numDataLinkVisualizers 2
config *.visualizer.dataLinkVisualizer[*].displayLinks true
config *.visualizer.dataLinkVisualizer[*].activityLevel "\"peer\""
config *.visualizer.dataLinkVisualizer[0].nodeFilter "\"sta1 or ap\""
config *.visualizer.dataLinkVisualizer[0].lineColor "\"red\""
config *.visualizer.dataLinkVisualizer[0].labelColor "\"red\""
config *.visualizer.dataLinkVisualizer[1].nodeFilter "\"ap or sta2\""
config *.visualizer.dataLinkVisualizer[1].lineColor "\"darkblue\""
config *.visualizer.dataLinkVisualizer[1].labelColor "\"darkblue\""
config *.visualizer.ieee80211Visualizer[0].displayAssociations true
config *.ap.lmac[0].mgmt.ssid "\"wlan2.4\""
config *.ap.lmac[1].mgmt.ssid "\"wlan5\""
config *.*sta*.lmac[0].agent.defaultSsid "\"wlan2.4\""
config *.*sta*.lmac[1].agent.defaultSsid "\"wlan5\""
config *.radioMedium.pathLoss.typename LogNormalShadowing
config *.radioMedium.pathLoss.sigma 2
config **.arp.typename GlobalArp
config *.**.numWlanInterfaces 2
config *.**.lmac[*].protocol "\"ieee80211be\""
config *.**.lmac[*].radio.antenna.numAntennas 2
config *.**.lmac[0].radio.bandwidth 20MHz
config *.**.lmac[1].radio.bandwidth 20MHz
config *.**.lmac[*].radio.receiver.modulation "\"QAM-64\""
config *.**.lmac[*].**.pendingQueue.packetCapacity 100000
config *.**.lmac[0].radio.bandName "\"2.4 GHz\""
config *.**.lmac[1].radio.bandName "\"5 GHz (20 MHz)\""
config *.**.lmac[0].bitrate 52Mbps
config *.**.lmac[1].bitrate 130Mbps
config *.**.umac.defaultInterface "\"lmac0\""
config *.**.lmac[*].mac.hcf.isBlockAckSupported true
config **.hcf.originatorMacDataService.fragmentationPolicy.fragmentationThreshold 10000B
config **.hcf.originatorMacDataService.msduAggregationPolicy.aggregationLengthThreshold 10000
config *.**.mobility.initialX "uniform(270m, 330m)"
config *.**.mobility.initialY "uniform(270m, 330m)"
config *.**.mobility.initialZ 0m
config *.**.**.edcaf[*].recoveryProcedure.shortRetryLimit 3
config *.**.**.edcaf[*].recoveryProcedure.longRetryLimit 3
config *.radioMedium.backgroundNoise.power -110dBm

scalar BaseNetwork.sta1.umac "#sent UDPData:0-0 on ift[100] at: " 1
scalar BaseNetwork.sta1.umac "#sent UDPData:0-0 on ift[101] at: " 1
scalar BaseNetwork.sta1.lmac[0].mac.hcf "#transmission UDPData:0-0 tried for " 0
scalar BaseNetwork.sta1.lmac[1].mac.hcf "#transmission UDPData:0-0 tried for " 0
scalar BaseNetwork.ap.umac "#received UDPData:0-0 on ift[101] at: " 1.000120333564
scalar BaseNetwork.ap.umac "#sent UDPData:0-0 on ift[100] at: " 1.000120333564
scalar BaseNetwork.ap.umac "#sent UDPData:0-0 on ift[101] at: " 1.000120333564
scalar BaseNetwork.ap.umac "#received UDPData:0-0 on ift[100] at: " 1.000208333564
scalar BaseNetwork.ap.lmac[1].mac.hcf "#transmission UDPData:0-0 tried for " 0
scalar BaseNetwork.sta2.umac "#received UDPData:0-0 on ift[101] at: " 1.000370667128
scalar BaseNetwork.ap.lmac[0].mac.hcf "#transmission UDPData:0-0 tried for " 0
scalar BaseNetwork.sta2.umac "#received UDPData:0-0 on ift[100] at: " 1.000618667128
scalar BaseNetwork.sta1.umac "#sent UDPData:0-1 on ift[100] at: " 1.347834219583
scalar BaseNetwork.sta1.umac "#sent UDPData:0-1 on ift[101] at: " 1.347834219583
scalar BaseNetwork.sta1.lmac[0].mac.hcf "#transmission UDPData:0-1 tried for " 0
scalar BaseNetwork.sta1.lmac[1].mac.hcf "#transmission UDPData:0-1 tried for " 0
scalar BaseNetwork.ap.umac "#received UDPData:0-1 on ift[101] at: " 1.347954553147
scalar BaseNetwork.ap.umac "#sent UDPData:0-1 on ift[100] at: " 1.347954553147
scalar BaseNetwork.ap.umac "#sent UDPData:0-1 on ift[101] at: " 1.347954553147
scalar BaseNetwork.ap.umac "#received UDPData:0-1 on ift[100] at: " 1.348042553147
scalar BaseNetwork.ap.lmac[1].mac.hcf "#transmission UDPData:0-1 tried for " 0
scalar BaseNetwork.ap.lmac[0].mac.hcf "#transmission UDPData:0-1 tried for " 0
scalar BaseNetwork.sta2.umac "#received UDPData:0-1 on ift[101] at: " 1.348285886711
scalar BaseNetwork.sta2.umac "#received UDPData:0-1 on ift[100] at: " 1.348443886711
scalar BaseNetwork.sta1.umac "#sent UDPData:0-2 on ift[100] at: " 1.38944694083
scalar BaseNetwork.sta1.umac "#sent UDPData:0-2 on ift[101] at: " 1.38944694083
scalar BaseNetwork.sta1.lmac[0].mac.hcf "#transmission UDPData:0-2 tried for " 0
scalar BaseNetwork.sta1.lmac[1].mac.hcf "#transmission UDPData:0-2 tried for " 0
scalar BaseNetwork.ap.umac "#received UDPData:0-2 on ift[101] at: " 1.389567274394
scalar BaseNetwork.ap.umac "#sent UDPData:0-2 on ift[100] at: " 1.389567274394
scalar BaseNetwork.ap.umac "#sent UDPData:0-2 on ift[101] at: " 1.389567274394
scalar BaseNetwork.ap.umac "#received UDPData:0-2 on ift[100] at: " 1.389655274394
scalar BaseNetwork.ap.lmac[1].mac.hcf "#transmission UDPData:0-2 tried for " 0
scalar BaseNetwork.sta2.umac "#received UDPData:0-2 on ift[101] at: " 1.389835607958
scalar BaseNetwork.ap.lmac[0].mac.hcf "#transmission UDPData:0-2 tried for " 0
scalar BaseNetwork.sta2.umac "#received UDPData:0-2 on ift[100] at: " 1.390056607958
scalar BaseNetwork.sta1.umac "#received ift[100]" 0
scalar BaseNetwork.sta1.umac "#received ift[101]" 0
scalar BaseNetwork.sta1.umac "#total received" 0
scalar BaseNetwork.sta1.umac "#total unique received" 0
scalar BaseNetwork.sta2.umac "#received ift[100]" 3
scalar BaseNetwork.sta2.umac "#received ift[101]" 3
scalar BaseNetwork.sta2.umac "#total received" 6
scalar BaseNetwork.sta2.umac "#total unique received" 3
scalar BaseNetwork.ap.umac "#received ift[100]" 3
scalar BaseNetwork.ap.umac "#received ift[101]" 3
scalar BaseNetwork.ap.umac "#total received" 6
scalar BaseNetwork.ap.umac "#total unique received" 3
scalar BaseNetwork.sta1.umac "#sent UDPData:0-3 on ift[100] at: " 2.039479646089
scalar BaseNetwork.sta1.umac "#sent UDPData:0-3 on ift[101] at: " 2.039479646089
scalar BaseNetwork.sta1.lmac[0].mac.hcf "#transmission UDPData:0-3 tried for " 0
scalar BaseNetwork.sta1.lmac[1].mac.hcf "#transmission UDPData:0-3 tried for " 0
scalar BaseNetwork.ap.umac "#received UDPData:0-3 on ift[101] at: " 2.039599979653
scalar BaseNetwork.ap.umac "#sent UDPData:0-3 on ift[100] at: " 2.039599979653
scalar BaseNetwork.ap.umac "#sent UDPData:0-3 on ift[101] at: " 2.039599979653
scalar BaseNetwork.ap.umac "#received UDPData:0-3 on ift[100] at: " 2.039687979653
scalar BaseNetwork.ap.lmac[1].mac.hcf "#transmission UDPData:0-3 tried for " 0
scalar BaseNetwork.ap.lmac[0].mac.hcf "#transmission UDPData:0-3 tried for " 0
scalar BaseNetwork.sta2.umac "#received UDPData:0-3 on ift[101] at: " 2.039940313217
scalar BaseNetwork.sta2.umac "#received UDPData:0-3 on ift[100] at: " 2.040035313217
scalar BaseNetwork.sta1.umac "#received ift[100]" 0
scalar BaseNetwork.sta1.umac "#received ift[101]" 0
scalar BaseNetwork.sta1.umac "#total received" 0
scalar BaseNetwork.sta1.umac "#total unique received" 0
scalar BaseNetwork.sta2.umac "#received ift[100]" 4
scalar BaseNetwork.sta2.umac "#received ift[101]" 4
scalar BaseNetwork.sta2.umac "#total received" 8
scalar BaseNetwork.sta2.umac "#total unique received" 4
scalar BaseNetwork.ap.umac "#received ift[100]" 4
scalar BaseNetwork.ap.umac "#received ift[101]" 4
scalar BaseNetwork.ap.umac "#total received" 8
scalar BaseNetwork.ap.umac "#total unique received" 4
scalar BaseNetwork.sta1.umac "#received ift[100]" 0
scalar BaseNetwork.sta1.umac "#received ift[101]" 0
scalar BaseNetwork.sta1.umac "#total received" 0
scalar BaseNetwork.sta1.umac "#total unique received" 0
scalar BaseNetwork.sta2.umac "#received ift[100]" 4
scalar BaseNetwork.sta2.umac "#received ift[101]" 4
scalar BaseNetwork.sta2.umac "#total received" 8
scalar BaseNetwork.sta2.umac "#total unique received" 4
scalar BaseNetwork.ap.umac "#received ift[100]" 4
scalar BaseNetwork.ap.umac "#received ift[101]" 4
scalar BaseNetwork.ap.umac "#total received" 8
scalar BaseNetwork.ap.umac "#total unique received" 4
scalar BaseNetwork.sta1.umac "#sent UDPData:0-4 on ift[100] at: " 2.29916979832
scalar BaseNetwork.sta1.umac "#sent UDPData:0-4 on ift[101] at: " 2.29916979832
scalar BaseNetwork.sta1.lmac[0].mac.hcf "#transmission UDPData:0-4 tried for " 0
scalar BaseNetwork.sta1.lmac[1].mac.hcf "#transmission UDPData:0-4 tried for " 0
scalar BaseNetwork.ap.umac "#received UDPData:0-4 on ift[101] at: " 2.299290131884
scalar BaseNetwork.ap.umac "#sent UDPData:0-4 on ift[100] at: " 2.299290131884
scalar BaseNetwork.ap.umac "#sent UDPData:0-4 on ift[101] at: " 2.299290131884
scalar BaseNetwork.ap.umac "#received UDPData:0-4 on ift[100] at: " 2.299378131884
scalar BaseNetwork.ap.lmac[1].mac.hcf "#transmission UDPData:0-4 tried for " 0
scalar BaseNetwork.ap.lmac[0].mac.hcf "#transmission UDPData:0-4 tried for " 0
scalar BaseNetwork.sta2.umac "#received UDPData:0-4 on ift[101] at: " 2.299612465448
scalar BaseNetwork.sta2.umac "#received UDPData:0-4 on ift[100] at: " 2.299797465448
scalar BaseNetwork.sta1.umac "#received ift[100]" 0
scalar BaseNetwork.sta1.umac "#received ift[101]" 0
scalar BaseNetwork.sta1.umac "#total received" 0
scalar BaseNetwork.sta1.umac "#total unique received" 0
scalar BaseNetwork.sta2.umac "#received ift[100]" 5
scalar BaseNetwork.sta2.umac "#received ift[101]" 5
scalar BaseNetwork.sta2.umac "#total received" 10
scalar BaseNetwork.sta2.umac "#total unique received" 5
scalar BaseNetwork.ap.umac "#received ift[100]" 5
scalar BaseNetwork.ap.umac "#received ift[101]" 5
scalar BaseNetwork.ap.umac "#total received" 10
scalar BaseNetwork.ap.umac "#total unique received" 5
scalar BaseNetwork.sta1.umac "#received ift[100]" 0
scalar BaseNetwork.sta1.umac "#received ift[101]" 0
scalar BaseNetwork.sta1.umac "#total received" 0
scalar BaseNetwork.sta1.umac "#total unique received" 0
scalar BaseNetwork.sta2.umac "#received ift[100]" 5
scalar BaseNetwork.sta2.umac "#received ift[101]" 5
scalar BaseNetwork.sta2.umac "#total received" 10
scalar BaseNetwork.sta2.umac "#total unique received" 5
scalar BaseNetwork.ap.umac "#received ift[100]" 5
scalar BaseNetwork.ap.umac "#received ift[101]" 5
scalar BaseNetwork.ap.umac "#total received" 10
scalar BaseNetwork.ap.umac "#total unique received" 5
scalar BaseNetwork.sta1.umac "#received ift[100]" 0
scalar BaseNetwork.sta1.umac "#received ift[101]" 0
scalar BaseNetwork.sta1.umac "#total received" 0
scalar BaseNetwork.sta1.umac "#total unique received" 0
scalar BaseNetwork.sta2.umac "#received ift[100]" 5
scalar BaseNetwork.sta2.umac "#received ift[101]" 5
scalar BaseNetwork.sta2.umac "#total received" 10
scalar BaseNetwork.sta2.umac "#total unique received" 5
scalar BaseNetwork.ap.umac "#received ift[100]" 5
scalar BaseNetwork.ap.umac "#received ift[101]" 5
scalar BaseNetwork.ap.umac "#total received" 10
scalar BaseNetwork.ap.umac "#total unique received" 5
scalar BaseNetwork.sta1.umac "#received ift[100]" 0
scalar BaseNetwork.sta1.umac "#received ift[101]" 0
scalar BaseNetwork.sta1.umac "#total received" 0
scalar BaseNetwork.sta1.umac "#total unique received" 0
scalar BaseNetwork.sta2.umac "#received ift[100]" 5
scalar BaseNetwork.sta2.umac "#received ift[101]" 5
scalar BaseNetwork.sta2.umac "#total received" 10
scalar BaseNetwork.sta2.umac "#total unique received" 5
scalar BaseNetwork.ap.umac "#received ift[100]" 5
scalar BaseNetwork.ap.umac "#received ift[101]" 5
scalar BaseNetwork.ap.umac "#total received" 10
scalar BaseNetwork.ap.umac "#total unique received" 5
scalar BaseNetwork.sta1.umac "#received ift[100]" 0
scalar BaseNetwork.sta1.umac "#received ift[101]" 0
scalar BaseNetwork.sta1.umac "#total received" 0
scalar BaseNetwork.sta1.umac "#total unique received" 0
scalar BaseNetwork.sta2.umac "#received ift[100]" 5
scalar BaseNetwork.sta2.umac "#received ift[101]" 5
scalar BaseNetwork.sta2.umac "#total received" 10
scalar BaseNetwork.sta2.umac "#total unique received" 5
scalar BaseNetwork.ap.umac "#received ift[100]" 5
scalar BaseNetwork.ap.umac "#received ift[101]" 5
scalar BaseNetwork.ap.umac "#total received" 10
scalar BaseNetwork.ap.umac "#total unique received" 5
scalar BaseNetwork.sta1.umac "#received ift[100]" 0
scalar BaseNetwork.sta1.umac "#received ift[101]" 0
scalar BaseNetwork.sta1.umac "#total received" 0
scalar BaseNetwork.sta1.umac "#total unique received" 0
scalar BaseNetwork.sta2.umac "#received ift[100]" 5
scalar BaseNetwork.sta2.umac "#received ift[101]" 5
scalar BaseNetwork.sta2.umac "#total received" 10
scalar BaseNetwork.sta2.umac "#total unique received" 5
scalar BaseNetwork.ap.umac "#received ift[100]" 5
scalar BaseNetwork.ap.umac "#received ift[101]" 5
scalar BaseNetwork.ap.umac "#total received" 10
scalar BaseNetwork.ap.umac "#total unique received" 5
scalar BaseNetwork.sta1.umac "#sent UDPData:0-5 on ift[100] at: " 2.806310476851
scalar BaseNetwork.sta1.umac "#sent UDPData:0-5 on ift[101] at: " 2.806310476851
scalar BaseNetwork.sta1.lmac[0].mac.hcf "#transmission UDPData:0-5 tried for " 0
scalar BaseNetwork.sta1.lmac[1].mac.hcf "#transmission UDPData:0-5 tried for " 0
scalar BaseNetwork.ap.umac "#received UDPData:0-5 on ift[101] at: " 2.806430810415
scalar BaseNetwork.ap.umac "#sent UDPData:0-5 on ift[100] at: " 2.806430810415
scalar BaseNetwork.ap.umac "#sent UDPData:0-5 on ift[101] at: " 2.806430810415
scalar BaseNetwork.ap.umac "#received UDPData:0-5 on ift[100] at: " 2.806518810415
scalar BaseNetwork.ap.lmac[1].mac.hcf "#transmission UDPData:0-5 tried for " 0
scalar BaseNetwork.sta2.umac "#received UDPData:0-5 on ift[101] at: " 2.806654143979
scalar BaseNetwork.ap.lmac[0].mac.hcf "#transmission UDPData:0-5 tried for " 0
scalar BaseNetwork.sta2.umac "#received UDPData:0-5 on ift[100] at: " 2.806956143979
scalar BaseNetwork.sta1.umac "#received ift[100]" 0
scalar BaseNetwork.sta1.umac "#received ift[101]" 0
scalar BaseNetwork.sta1.umac "#total received" 0
scalar BaseNetwork.sta1.umac "#total unique received" 0
scalar BaseNetwork.sta2.umac "#received ift[100]" 6
scalar BaseNetwork.sta2.umac "#received ift[101]" 6
scalar BaseNetwork.sta2.umac "#total received" 12
scalar BaseNetwork.sta2.umac "#total unique received" 6
scalar BaseNetwork.ap.umac "#received ift[100]" 6
scalar BaseNetwork.ap.umac "#received ift[101]" 6
scalar BaseNetwork.ap.umac "#total received" 12
scalar BaseNetwork.ap.umac "#total unique received" 6
scalar BaseNetwork.sta1.umac "#received ift[100]" 0
scalar BaseNetwork.sta1.umac "#received ift[101]" 0
scalar BaseNetwork.sta1.umac "#total received" 0
scalar BaseNetwork.sta1.umac "#total unique received" 0
scalar BaseNetwork.sta2.umac "#received ift[100]" 6
scalar BaseNetwork.sta2.umac "#received ift[101]" 6
scalar BaseNetwork.sta2.umac "#total received" 12
scalar BaseNetwork.sta2.umac "#total unique received" 6
scalar BaseNetwork.ap.umac "#received ift[100]" 6
scalar BaseNetwork.ap.umac "#received ift[101]" 6
scalar BaseNetwork.ap.umac "#total received" 12
scalar BaseNetwork.ap.umac "#total unique received" 6
scalar BaseNetwork.sta1.umac "#received ift[100]" 0
scalar BaseNetwork.sta1.umac "#received ift[101]" 0
scalar BaseNetwork.sta1.umac "#total received" 0
scalar BaseNetwork.sta1.umac "#total unique received" 0
scalar BaseNetwork.sta2.umac "#received ift[100]" 6
scalar BaseNetwork.sta2.umac "#received ift[101]" 6
scalar BaseNetwork.sta2.umac "#total received" 12
scalar BaseNetwork.sta2.umac "#total unique received" 6
scalar BaseNetwork.ap.umac "#received ift[100]" 6
scalar BaseNetwork.ap.umac "#received ift[101]" 6
scalar BaseNetwork.ap.umac "#total received" 12
scalar BaseNetwork.ap.umac "#total unique received" 6
scalar BaseNetwork.sta1.umac "#received ift[100]" 0
scalar BaseNetwork.sta1.umac "#received ift[101]" 0
scalar BaseNetwork.sta1.umac "#total received" 0
scalar BaseNetwork.sta1.umac "#total unique received" 0
scalar BaseNetwork.sta2.umac "#received ift[100]" 6
scalar BaseNetwork.sta2.umac "#received ift[101]" 6
scalar BaseNetwork.sta2.umac "#total received" 12
scalar BaseNetwork.sta2.umac "#total unique received" 6
scalar BaseNetwork.ap.umac "#received ift[100]" 6
scalar BaseNetwork.ap.umac "#received ift[101]" 6
scalar BaseNetwork.ap.umac "#total received" 12
scalar BaseNetwork.ap.umac "#total unique received" 6
scalar BaseNetwork.sta1.umac "#sent UDPData:0-6 on ift[100] at: " 3.220038752405
scalar BaseNetwork.sta1.umac "#sent UDPData:0-6 on ift[101] at: " 3.220038752405
scalar BaseNetwork.sta1.lmac[0].mac.hcf "#transmission UDPData:0-6 tried for " 0
scalar BaseNetwork.sta1.lmac[1].mac.hcf "#transmission UDPData:0-6 tried for " 0
scalar BaseNetwork.ap.umac "#received UDPData:0-6 on ift[101] at: " 3.220159085969
scalar BaseNetwork.ap.umac "#sent UDPData:0-6 on ift[100] at: " 3.220159085969
scalar BaseNetwork.ap.umac "#sent UDPData:0-6 on ift[101] at: " 3.220159085969
scalar BaseNetwork.ap.umac "#received UDPData:0-6 on ift[100] at: " 3.220247085969
scalar BaseNetwork.ap.lmac[1].mac.hcf "#transmission UDPData:0-6 tried for " 0
scalar BaseNetwork.sta2.umac "#received UDPData:0-6 on ift[101] at: " 3.220382419533
scalar BaseNetwork.ap.lmac[0].mac.hcf "#transmission UDPData:0-6 tried for " 0
scalar BaseNetwork.sta2.umac "#received UDPData:0-6 on ift[100] at: " 3.220693419533
scalar BaseNetwork.sta1.umac "#sent UDPData:0-7 on ift[100] at: " 3.269099693902
scalar BaseNetwork.sta1.umac "#sent UDPData:0-7 on ift[101] at: " 3.269099693902
scalar BaseNetwork.sta1.lmac[0].mac.hcf "#transmission UDPData:0-7 tried for " 0
scalar BaseNetwork.sta1.lmac[1].mac.hcf "#transmission UDPData:0-7 tried for " 0
scalar BaseNetwork.ap.umac "#received UDPData:0-7 on ift[101] at: " 3.269220027466
scalar BaseNetwork.ap.umac "#sent UDPData:0-7 on ift[100] at: " 3.269220027466
scalar BaseNetwork.ap.umac "#sent UDPData:0-7 on ift[101] at: " 3.269220027466
scalar BaseNetwork.ap.umac "#received UDPData:0-7 on ift[100] at: " 3.269308027466
scalar BaseNetwork.ap.lmac[1].mac.hcf "#transmission UDPData:0-7 tried for " 0
scalar BaseNetwork.ap.lmac[0].mac.hcf "#transmission UDPData:0-7 tried for " 0
scalar BaseNetwork.sta2.umac "#received UDPData:0-7 on ift[101] at: " 3.26949736103
scalar BaseNetwork.sta2.umac "#received UDPData:0-7 on ift[100] at: " 3.26963736103
scalar BaseNetwork.sta1.umac "#received ift[100]" 0
scalar BaseNetwork.sta1.umac "#received ift[101]" 0
scalar BaseNetwork.sta1.umac "#total received" 0
scalar BaseNetwork.sta1.umac "#total unique received" 0
scalar BaseNetwork.sta2.umac "#received ift[100]" 8
scalar BaseNetwork.sta2.umac "#received ift[101]" 8
scalar BaseNetwork.sta2.umac "#total received" 16
scalar BaseNetwork.sta2.umac "#total unique received" 8
scalar BaseNetwork.ap.umac "#received ift[100]" 8
scalar BaseNetwork.ap.umac "#received ift[101]" 8
scalar BaseNetwork.ap.umac "#total received" 16
scalar BaseNetwork.ap.umac "#total unique received" 8
scalar BaseNetwork.sta1.umac "#sent UDPData:0-8 on ift[100] at: " 3.359263429534
scalar BaseNetwork.sta1.umac "#sent UDPData:0-8 on ift[101] at: " 3.359263429534
scalar BaseNetwork.sta1.lmac[0].mac.hcf "#transmission UDPData:0-8 tried for " 0
scalar BaseNetwork.sta1.lmac[1].mac.hcf "#transmission UDPData:0-8 tried for " 0
scalar BaseNetwork.ap.umac "#received UDPData:0-8 on ift[101] at: " 3.359383763098
scalar BaseNetwork.ap.umac "#sent UDPData:0-8 on ift[100] at: " 3.359383763098
scalar BaseNetwork.ap.umac "#sent UDPData:0-8 on ift[101] at: " 3.359383763098
scalar BaseNetwork.ap.umac "#received UDPData:0-8 on ift[100] at: " 3.359471763098
scalar BaseNetwork.ap.lmac[1].mac.hcf "#transmission UDPData:0-8 tried for " 0
scalar BaseNetwork.ap.lmac[0].mac.hcf "#transmission UDPData:0-8 tried for " 0
scalar BaseNetwork.sta2.umac "#received UDPData:0-8 on ift[101] at: " 3.359625096662
scalar BaseNetwork.sta2.umac "#received UDPData:0-8 on ift[100] at: " 3.359792096662
scalar BaseNetwork.sta1.umac "#received ift[100]" 0
scalar BaseNetwork.sta1.umac "#received ift[101]" 0
scalar BaseNetwork.sta1.umac "#total received" 0
scalar BaseNetwork.sta1.umac "#total unique received" 0
scalar BaseNetwork.sta2.umac "#received ift[100]" 9
scalar BaseNetwork.sta2.umac "#received ift[101]" 9
scalar BaseNetwork.sta2.umac "#total received" 18
scalar BaseNetwork.sta2.umac "#total unique received" 9
scalar BaseNetwork.ap.umac "#received ift[100]" 9
scalar BaseNetwork.ap.umac "#received ift[101]" 9
scalar BaseNetwork.ap.umac "#total received" 18
scalar BaseNetwork.ap.umac "#total unique received" 9
scalar BaseNetwork.sta1.umac "#received ift[100]" 0
scalar BaseNetwork.sta1.umac "#received ift[101]" 0
scalar BaseNetwork.sta1.umac "#total received" 0
scalar BaseNetwork.sta1.umac "#total unique received" 0
scalar BaseNetwork.sta2.umac "#received ift[100]" 9
scalar BaseNetwork.sta2.umac "#received ift[101]" 9
scalar BaseNetwork.sta2.umac "#total received" 18
scalar BaseNetwork.sta2.umac "#total unique received" 9
scalar BaseNetwork.ap.umac "#received ift[100]" 9
scalar BaseNetwork.ap.umac "#received ift[101]" 9
scalar BaseNetwork.ap.umac "#total received" 18
scalar BaseNetwork.ap.umac "#total unique received" 9
scalar BaseNetwork.sta1.umac "#received ift[100]" 0
scalar BaseNetwork.sta1.umac "#received ift[101]" 0
scalar BaseNetwork.sta1.umac "#total received" 0
scalar BaseNetwork.sta1.umac "#total unique received" 0
scalar BaseNetwork.sta2.umac "#received ift[100]" 9
scalar BaseNetwork.sta2.umac "#received ift[101]" 9
scalar BaseNetwork.sta2.umac "#total received" 18
scalar BaseNetwork.sta2.umac "#total unique received" 9
scalar BaseNetwork.ap.umac "#received ift[100]" 9
scalar BaseNetwork.ap.umac "#received ift[101]" 9
scalar BaseNetwork.ap.umac "#total received" 18
scalar BaseNetwork.ap.umac "#total unique received" 9
scalar BaseNetwork.sta1.umac "#sent UDPData:0-9 on ift[100] at: " 3.695001353827
scalar BaseNetwork.sta1.umac "#sent UDPData:0-9 on ift[101] at: " 3.695001353827
scalar BaseNetwork.sta1.lmac[0].mac.hcf "#transmission UDPData:0-9 tried for " 0
scalar BaseNetwork.sta1.lmac[1].mac.hcf "#transmission UDPData:0-9 tried for " 0
scalar BaseNetwork.ap.umac "#received UDPData:0-9 on ift[101] at: " 3.695121687391
scalar BaseNetwork.ap.umac "#sent UDPData:0-9 on ift[100] at: " 3.695121687391
scalar BaseNetwork.ap.umac "#sent UDPData:0-9 on ift[101] at: " 3.695121687391
scalar BaseNetwork.ap.umac "#received UDPData:0-9 on ift[100] at: " 3.695209687391
scalar BaseNetwork.ap.lmac[1].mac.hcf "#transmission UDPData:0-9 tried for " 0
scalar BaseNetwork.ap.lmac[0].mac.hcf "#transmission UDPData:0-9 tried for " 0
scalar BaseNetwork.sta2.umac "#received UDPData:0-9 on ift[101] at: " 3.695541020955
scalar BaseNetwork.sta2.umac "#received UDPData:0-9 on ift[100] at: " 3.695647020955
scalar BaseNetwork.sta1.umac "#received ift[100]" 0
scalar BaseNetwork.sta1.umac "#received ift[101]" 0
scalar BaseNetwork.sta1.umac "#total received" 0
scalar BaseNetwork.sta1.umac "#total unique received" 0
scalar BaseNetwork.sta2.umac "#received ift[100]" 10
scalar BaseNetwork.sta2.umac "#received ift[101]" 10
scalar BaseNetwork.sta2.umac "#total received" 20
scalar BaseNetwork.sta2.umac "#total unique received" 10
scalar BaseNetwork.ap.umac "#received ift[100]" 10
scalar BaseNetwork.ap.umac "#received ift[101]" 10
scalar BaseNetwork.ap.umac "#total received" 20
scalar BaseNetwork.ap.umac "#total unique received" 10
scalar BaseNetwork.sta1.umac "#received ift[100]" 0
scalar BaseNetwork.sta1.umac "#received ift[101]" 0
scalar BaseNetwork.sta1.umac "#total received" 0
scalar BaseNetwork.sta1.umac "#total unique received" 0
scalar BaseNetwork.sta2.umac "#received ift[100]" 10
scalar BaseNetwork.sta2.umac "#received ift[101]" 10
scalar BaseNetwork.sta2.umac "#total received" 20
scalar BaseNetwork.sta2.umac "#total unique received" 10
scalar BaseNetwork.ap.umac "#received ift[100]" 10
scalar BaseNetwork.ap.umac "#received ift[101]" 10
scalar BaseNetwork.ap.umac "#total received" 20
scalar BaseNetwork.ap.umac "#total unique received" 10
scalar BaseNetwork.sta1.umac "#received ift[100]" 0
scalar BaseNetwork.sta1.umac "#received ift[101]" 0
scalar BaseNetwork.sta1.umac "#total received" 0
scalar BaseNetwork.sta1.umac "#total unique received" 0
scalar BaseNetwork.sta2.umac "#received ift[100]" 10
scalar BaseNetwork.sta2.umac "#received ift[101]" 10
scalar BaseNetwork.sta2.umac "#total received" 20
scalar BaseNetwork.sta2.umac "#total unique received" 10
scalar BaseNetwork.ap.umac "#received ift[100]" 10
scalar BaseNetwork.ap.umac "#received ift[101]" 10
scalar BaseNetwork.ap.umac "#total received" 20
scalar BaseNetwork.ap.umac "#total unique received" 10
scalar BaseNetwork.sta1.umac "#received ift[100]" 0
scalar BaseNetwork.sta1.umac "#received ift[101]" 0
scalar BaseNetwork.sta1.umac "#total received" 0
scalar BaseNetwork.sta1.umac "#total unique received" 0
scalar BaseNetwork.sta2.umac "#received ift[100]" 10
scalar BaseNetwork.sta2.umac "#received ift[101]" 10
scalar BaseNetwork.sta2.umac "#total received" 20
scalar BaseNetwork.sta2.umac "#total unique received" 10
scalar BaseNetwork.ap.umac "#received ift[100]" 10
scalar BaseNetwork.ap.umac "#received ift[101]" 10
scalar BaseNetwork.ap.umac "#total received" 20
scalar BaseNetwork.ap.umac "#total unique received" 10
scalar BaseNetwork.sta1.umac "#received ift[100]" 0
scalar BaseNetwork.sta1.umac "#received ift[101]" 0
scalar BaseNetwork.sta1.umac "#total received" 0
scalar BaseNetwork.sta1.umac "#total unique received" 0
scalar BaseNetwork.sta2.umac "#received ift[100]" 10
scalar BaseNetwork.sta2.umac "#received ift[101]" 10
scalar BaseNetwork.sta2.umac "#total received" 20
scalar BaseNetwork.sta2.umac "#total unique received" 10
scalar BaseNetwork.ap.umac "#received ift[100]" 10
scalar BaseNetwork.ap.umac "#received ift[101]" 10
scalar BaseNetwork.ap.umac "#total received" 20
scalar BaseNetwork.ap.umac "#total unique received" 10
scalar BaseNetwork.sta1.umac "#received ift[100]" 0
scalar BaseNetwork.sta1.umac "#received ift[101]" 0
scalar BaseNetwork.sta1.umac "#total received" 0
scalar BaseNetwork.sta1.umac "#total unique received" 0
scalar BaseNetwork.sta2.umac "#received ift[100]" 10
scalar BaseNetwork.sta2.umac "#received ift[101]" 10
scalar BaseNetwork.sta2.umac "#total received" 20
scalar BaseNetwork.sta2.umac "#total unique received" 10
scalar BaseNetwork.ap.umac "#received ift[100]" 10
scalar BaseNetwork.ap.umac "#received ift[101]" 10
scalar BaseNetwork.ap.umac "#total received" 20
scalar BaseNetwork.ap.umac "#total unique received" 10
scalar BaseNetwork.sta1.umac "#sent UDPData:0-10 on ift[100] at: " 4.296549075651
scalar BaseNetwork.sta1.umac "#sent UDPData:0-10 on ift[101] at: " 4.296549075651
scalar BaseNetwork.sta1.lmac[0].mac.hcf "#transmission UDPData:0-10 tried for " 0
scalar BaseNetwork.sta1.lmac[1].mac.hcf "#transmission UDPData:0-10 tried for " 0
scalar BaseNetwork.ap.umac "#received UDPData:0-10 on ift[101] at: " 4.296669409215
scalar BaseNetwork.ap.umac "#sent UDPData:0-10 on ift[100] at: " 4.296669409215
scalar BaseNetwork.ap.umac "#sent UDPData:0-10 on ift[101] at: " 4.296669409215
scalar BaseNetwork.ap.umac "#received UDPData:0-10 on ift[100] at: " 4.296757409215
scalar BaseNetwork.ap.lmac[1].mac.hcf "#transmission UDPData:0-10 tried for " 0
scalar BaseNetwork.ap.lmac[0].mac.hcf "#transmission UDPData:0-10 tried for " 0
scalar BaseNetwork.sta2.umac "#received UDPData:0-10 on ift[101] at: " 4.296937742779
scalar BaseNetwork.sta2.umac "#received UDPData:0-10 on ift[100] at: " 4.297086742779
scalar BaseNetwork.sta1.umac "#received ift[100]" 0
scalar BaseNetwork.sta1.umac "#received ift[101]" 0
scalar BaseNetwork.sta1.umac "#total received" 0
scalar BaseNetwork.sta1.umac "#total unique received" 0
scalar BaseNetwork.sta2.umac "#received ift[100]" 11
scalar BaseNetwork.sta2.umac "#received ift[101]" 11
scalar BaseNetwork.sta2.umac "#total received" 22
scalar BaseNetwork.sta2.umac "#total unique received" 11
scalar BaseNetwork.ap.umac "#received ift[100]" 11
scalar BaseNetwork.ap.umac "#received ift[101]" 11
scalar BaseNetwork.ap.umac "#total received" 22
scalar BaseNetwork.ap.umac "#total unique received" 11
scalar BaseNetwork.sta1.umac "#received ift[100]" 0
scalar BaseNetwork.sta1.umac "#received ift[101]" 0
scalar BaseNetwork.sta1.umac "#total received" 0
scalar BaseNetwork.sta1.umac "#total unique received" 0
scalar BaseNetwork.sta2.umac "#received ift[100]" 11
scalar BaseNetwork.sta2.umac "#received ift[101]" 11
scalar BaseNetwork.sta2.umac "#total received" 22
scalar BaseNetwork.sta2.umac "#total unique received" 11
scalar BaseNetwork.ap.umac "#received ift[100]" 11
scalar BaseNetwork.ap.umac "#received ift[101]" 11
scalar BaseNetwork.ap.umac "#total received" 22
scalar BaseNetwork.ap.umac "#total unique received" 11
scalar BaseNetwork.sta1.umac "#received ift[100]" 0
scalar BaseNetwork.sta1.umac "#received ift[101]" 0
scalar BaseNetwork.sta1.umac "#total received" 0
scalar BaseNetwork.sta1.umac "#total unique received" 0
scalar BaseNetwork.sta2.umac "#received ift[100]" 11
scalar BaseNetwork.sta2.umac "#received ift[101]" 11
scalar BaseNetwork.sta2.umac "#total received" 22
scalar BaseNetwork.sta2.umac "#total unique received" 11
scalar BaseNetwork.ap.umac "#received ift[100]" 11
scalar BaseNetwork.ap.umac "#received ift[101]" 11
scalar BaseNetwork.ap.umac "#total received" 22
scalar BaseNetwork.ap.umac "#total unique received" 11
scalar BaseNetwork.sta1.umac "#sent UDPData:0-11 on ift[100] at: " 4.581252693317
scalar BaseNetwork.sta1.umac "#sent UDPData:0-11 on ift[101] at: " 4.581252693317
scalar BaseNetwork.sta1.lmac[0].mac.hcf "#transmission UDPData:0-11 tried for " 0
scalar BaseNetwork.sta1.lmac[1].mac.hcf "#transmission UDPData:0-11 tried for " 0
scalar BaseNetwork.ap.umac "#received UDPData:0-11 on ift[101] at: " 4.581373026881
scalar BaseNetwork.ap.umac "#sent UDPData:0-11 on ift[100] at: " 4.581373026881
scalar BaseNetwork.ap.umac "#sent UDPData:0-11 on ift[101] at: " 4.581373026881
scalar BaseNetwork.ap.umac "#received UDPData:0-11 on ift[100] at: " 4.581461026881
scalar BaseNetwork.ap.lmac[1].mac.hcf "#transmission UDPData:0-11 tried for " 0
scalar BaseNetwork.ap.lmac[0].mac.hcf "#transmission UDPData:0-11 tried for " 0
scalar BaseNetwork.sta2.umac "#received UDPData:0-11 on ift[101] at: " 4.581686360445
scalar BaseNetwork.sta2.umac "#received UDPData:0-11 on ift[100] at: " 4.581817360445
scalar BaseNetwork.sta1.umac "#received ift[100]" 0
scalar BaseNetwork.sta1.umac "#received ift[101]" 0
scalar BaseNetwork.sta1.umac "#total received" 0
scalar BaseNetwork.sta1.umac "#total unique received" 0
scalar BaseNetwork.sta2.umac "#received ift[100]" 12
scalar BaseNetwork.sta2.umac "#received ift[101]" 12
scalar BaseNetwork.sta2.umac "#total received" 24
scalar BaseNetwork.sta2.umac "#total unique received" 12
scalar BaseNetwork.ap.umac "#received ift[100]" 12
scalar BaseNetwork.ap.umac "#received ift[101]" 12
scalar BaseNetwork.ap.umac "#total received" 24
scalar BaseNetwork.ap.umac "#total unique received" 12
scalar BaseNetwork.sta1.umac "#received ift[100]" 0
scalar BaseNetwork.sta1.umac "#received ift[101]" 0
scalar BaseNetwork.sta1.umac "#total received" 0
scalar BaseNetwork.sta1.umac "#total unique received" 0
scalar BaseNetwork.sta2.umac "#received ift[100]" 12
scalar BaseNetwork.sta2.umac "#received ift[101]" 12
scalar BaseNetwork.sta2.umac "#total received" 24
scalar BaseNetwork.sta2.umac "#total unique received" 12
scalar BaseNetwork.ap.umac "#received ift[100]" 12
scalar BaseNetwork.ap.umac "#received ift[101]" 12
scalar BaseNetwork.ap.umac "#total received" 24
scalar BaseNetwork.ap.umac "#total unique received" 12
scalar BaseNetwork.sta1.umac "#received ift[100]" 0
scalar BaseNetwork.sta1.umac "#received ift[101]" 0
scalar BaseNetwork.sta1.umac "#total received" 0
scalar BaseNetwork.sta1.umac "#total unique received" 0
scalar BaseNetwork.sta2.umac "#received ift[100]" 12
scalar BaseNetwork.sta2.umac "#received ift[101]" 12
scalar BaseNetwork.sta2.umac "#total received" 24
scalar BaseNetwork.sta2.umac "#total unique received" 12
scalar BaseNetwork.ap.umac "#received ift[100]" 12
scalar BaseNetwork.ap.umac "#received ift[101]" 12
scalar BaseNetwork.ap.umac "#total received" 24
scalar BaseNetwork.ap.umac "#total unique received" 12
scalar BaseNetwork.sta1.umac "#sent UDPData:0-12 on ift[100] at: " 4.833738074604
scalar BaseNetwork.sta1.umac "#sent UDPData:0-12 on ift[101] at: " 4.833738074604
scalar BaseNetwork.sta1.lmac[0].mac.hcf "#transmission UDPData:0-12 tried for " 0
scalar BaseNetwork.sta1.lmac[1].mac.hcf "#transmission UDPData:0-12 tried for " 0
scalar BaseNetwork.ap.umac "#received UDPData:0-12 on ift[101] at: " 4.833858408168
scalar BaseNetwork.ap.umac "#sent UDPData:0-12 on ift[100] at: " 4.833858408168
scalar BaseNetwork.ap.umac "#sent UDPData:0-12 on ift[101] at: " 4.833858408168
scalar BaseNetwork.ap.umac "#received UDPData:0-12 on ift[100] at: " 4.833946408168
scalar BaseNetwork.ap.lmac[1].mac.hcf "#transmission UDPData:0-12 tried for " 0
scalar BaseNetwork.ap.lmac[0].mac.hcf "#transmission UDPData:0-12 tried for " 0
scalar BaseNetwork.sta2.umac "#received UDPData:0-12 on ift[101] at: " 4.834216741732
scalar BaseNetwork.sta2.umac "#received UDPData:0-12 on ift[100] at: " 4.834338741732
scalar BaseNetwork.sta1.umac "#received ift[100]" 0
scalar BaseNetwork.sta1.umac "#received ift[101]" 0
scalar BaseNetwork.sta1.umac "#total received" 0
scalar BaseNetwork.sta1.umac "#total unique received" 0
scalar BaseNetwork.sta2.umac "#received ift[100]" 13
scalar BaseNetwork.sta2.umac "#received ift[101]" 13
scalar BaseNetwork.sta2.umac "#total received" 26
scalar BaseNetwork.sta2.umac "#total unique received" 13
scalar BaseNetwork.ap.umac "#received ift[100]" 13
scalar BaseNetwork.ap.umac "#received ift[101]" 13
scalar BaseNetwork.ap.umac "#total received" 26
scalar BaseNetwork.ap.umac "#total unique received" 13
scalar BaseNetwork.sta1.umac "#received ift[100]" 0
scalar BaseNetwork.sta1.umac "#received ift[101]" 0
scalar BaseNetwork.sta1.umac "#total received" 0
scalar BaseNetwork.sta1.umac "#total unique received" 0
scalar BaseNetwork.sta2.umac "#received ift[100]" 13
scalar BaseNetwork.sta2.umac "#received ift[101]" 13
scalar BaseNetwork.sta2.umac "#total received" 26
scalar BaseNetwork.sta2.umac "#total unique received" 13
scalar BaseNetwork.ap.umac "#received ift[100]" 13
scalar BaseNetwork.ap.umac "#received ift[101]" 13
scalar BaseNetwork.ap.umac "#total received" 26
scalar BaseNetwork.ap.umac "#total unique received" 13
scalar BaseNetwork.sta1.umac "#received ift[100]" 0
scalar BaseNetwork.sta1.umac "#received ift[101]" 0
scalar BaseNetwork.sta1.umac "#total received" 0
scalar BaseNetwork.sta1.umac "#total unique received" 0
scalar BaseNetwork.sta2.umac "#received ift[100]" 13
scalar BaseNetwork.sta2.umac "#received ift[101]" 13
scalar BaseNetwork.sta2.umac "#total received" 26
scalar BaseNetwork.sta2.umac "#total unique received" 13
scalar BaseNetwork.ap.umac "#received ift[100]" 13
scalar BaseNetwork.ap.umac "#received ift[101]" 13
scalar BaseNetwork.ap.umac "#total received" 26
scalar BaseNetwork.ap.umac "#total unique received" 13
scalar BaseNetwork.sta1.umac "#received ift[100]" 0
scalar BaseNetwork.sta1.umac "#received ift[101]" 0
scalar BaseNetwork.sta1.umac "#total received" 0
scalar BaseNetwork.sta1.umac "#total unique received" 0
scalar BaseNetwork.sta2.umac "#received ift[100]" 13
scalar BaseNetwork.sta2.umac "#received ift[101]" 13
scalar BaseNetwork.sta2.umac "#total received" 26
scalar BaseNetwork.sta2.umac "#total unique received" 13
scalar BaseNetwork.ap.umac "#received ift[100]" 13
scalar BaseNetwork.ap.umac "#received ift[101]" 13
scalar BaseNetwork.ap.umac "#total received" 26
scalar BaseNetwork.ap.umac "#total unique received" 13
scalar BaseNetwork.sta1.umac "#received ift[100]" 0
scalar BaseNetwork.sta1.umac "#received ift[101]" 0
scalar BaseNetwork.sta1.umac "#total received" 0
scalar BaseNetwork.sta1.umac "#total unique received" 0
scalar BaseNetwork.sta2.umac "#received ift[100]" 13
scalar BaseNetwork.sta2.umac "#received ift[101]" 13
scalar BaseNetwork.sta2.umac "#total received" 26
scalar BaseNetwork.sta2.umac "#total unique received" 13
scalar BaseNetwork.ap.umac "#received ift[100]" 13
scalar BaseNetwork.ap.umac "#received ift[101]" 13
scalar BaseNetwork.ap.umac "#total received" 26
scalar BaseNetwork.ap.umac "#total unique received" 13
scalar BaseNetwork.sta1.umac "#sent UDPData:0-13 on ift[100] at: " 5.342566661673
scalar BaseNetwork.sta1.umac "#sent UDPData:0-13 on ift[101] at: " 5.342566661673
scalar BaseNetwork.sta1.lmac[0].mac.hcf "#transmission UDPData:0-13 tried for " 0
scalar BaseNetwork.sta1.lmac[1].mac.hcf "#transmission UDPData:0-13 tried for " 0
scalar BaseNetwork.ap.umac "#received UDPData:0-13 on ift[101] at: " 5.342686995237
scalar BaseNetwork.ap.umac "#sent UDPData:0-13 on ift[100] at: " 5.342686995237
scalar BaseNetwork.ap.umac "#sent UDPData:0-13 on ift[101] at: " 5.342686995237
scalar BaseNetwork.ap.umac "#received UDPData:0-13 on ift[100] at: " 5.342774995237
scalar BaseNetwork.ap.lmac[1].mac.hcf "#transmission UDPData:0-13 tried for " 0
scalar BaseNetwork.ap.lmac[0].mac.hcf "#transmission UDPData:0-13 tried for " 0
scalar BaseNetwork.sta2.umac "#received UDPData:0-13 on ift[101] at: " 5.343009328801
scalar BaseNetwork.sta2.umac "#received UDPData:0-13 on ift[100] at: " 5.343212328801
scalar BaseNetwork.sta1.umac "#received ift[100]" 0
scalar BaseNetwork.sta1.umac "#received ift[101]" 0
scalar BaseNetwork.sta1.umac "#total received" 0
scalar BaseNetwork.sta1.umac "#total unique received" 0
scalar BaseNetwork.sta2.umac "#received ift[100]" 14
scalar BaseNetwork.sta2.umac "#received ift[101]" 14
scalar BaseNetwork.sta2.umac "#total received" 28
scalar BaseNetwork.sta2.umac "#total unique received" 14
scalar BaseNetwork.ap.umac "#received ift[100]" 14
scalar BaseNetwork.ap.umac "#received ift[101]" 14
scalar BaseNetwork.ap.umac "#total received" 28
scalar BaseNetwork.ap.umac "#total unique received" 14
scalar BaseNetwork.sta1.umac "#sent UDPData:0-14 on ift[100] at: " 5.494094556705
scalar BaseNetwork.sta1.umac "#sent UDPData:0-14 on ift[101] at: " 5.494094556705
scalar BaseNetwork.sta1.lmac[0].mac.hcf "#transmission UDPData:0-14 tried for " 0
scalar BaseNetwork.sta1.lmac[1].mac.hcf "#transmission UDPData:0-14 tried for " 0
scalar BaseNetwork.ap.umac "#received UDPData:0-14 on ift[101] at: " 5.494214890269
scalar BaseNetwork.ap.umac "#sent UDPData:0-14 on ift[100] at: " 5.494214890269
scalar BaseNetwork.ap.umac "#sent UDPData:0-14 on ift[101] at: " 5.494214890269
scalar BaseNetwork.ap.umac "#received UDPData:0-14 on ift[100] at: " 5.494302890269
scalar BaseNetwork.ap.lmac[1].mac.hcf "#transmission UDPData:0-14 tried for " 0
scalar BaseNetwork.sta2.umac "#received UDPData:0-14 on ift[101] at: " 5.494465223833
scalar BaseNetwork.ap.lmac[0].mac.hcf "#transmission UDPData:0-14 tried for " 0
scalar BaseNetwork.sta2.umac "#received UDPData:0-14 on ift[100] at: " 5.494695223833
scalar BaseNetwork.sta1.umac "#sent UDPData:0-15 on ift[100] at: " 5.495874041442
scalar BaseNetwork.sta1.umac "#sent UDPData:0-15 on ift[101] at: " 5.495874041442
scalar BaseNetwork.sta1.lmac[0].mac.hcf "#transmission UDPData:0-15 tried for " 0
scalar BaseNetwork.sta1.lmac[1].mac.hcf "#transmission UDPData:0-15 tried for " 0
scalar BaseNetwork.ap.umac "#received UDPData:0-15 on ift[101] at: " 5.495994375006
scalar BaseNetwork.ap.umac "#sent UDPData:0-15 on ift[100] at: " 5.495994375006
scalar BaseNetwork.ap.umac "#sent UDPData:0-15 on ift[101] at: " 5.495994375006
scalar BaseNetwork.ap.umac "#received UDPData:0-15 on ift[100] at: " 5.496082375006
scalar BaseNetwork.ap.lmac[1].mac.hcf "#transmission UDPData:0-15 tried for " 0
scalar BaseNetwork.sta2.umac "#received UDPData:0-15 on ift[101] at: " 5.49621770857
scalar BaseNetwork.ap.lmac[0].mac.hcf "#transmission UDPData:0-15 tried for " 0
scalar BaseNetwork.sta2.umac "#received UDPData:0-15 on ift[100] at: " 5.49644770857
scalar BaseNetwork.sta1.umac "#received ift[100]" 0
scalar BaseNetwork.sta1.umac "#received ift[101]" 0
scalar BaseNetwork.sta1.umac "#total received" 0
scalar BaseNetwork.sta1.umac "#total unique received" 0
scalar BaseNetwork.sta2.umac "#received ift[100]" 16
scalar BaseNetwork.sta2.umac "#received ift[101]" 16
scalar BaseNetwork.sta2.umac "#total received" 32
scalar BaseNetwork.sta2.umac "#total unique received" 16
scalar BaseNetwork.ap.umac "#received ift[100]" 16
scalar BaseNetwork.ap.umac "#received ift[101]" 16
scalar BaseNetwork.ap.umac "#total received" 32
scalar BaseNetwork.ap.umac "#total unique received" 16
scalar BaseNetwork.sta1.umac "#received ift[100]" 0
scalar BaseNetwork.sta1.umac "#received ift[101]" 0
scalar BaseNetwork.sta1.umac "#total received" 0
scalar BaseNetwork.sta1.umac "#total unique received" 0
scalar BaseNetwork.sta2.umac "#received ift[100]" 16
scalar BaseNetwork.sta2.umac "#received ift[101]" 16
scalar BaseNetwork.sta2.umac "#total received" 32
scalar BaseNetwork.sta2.umac "#total unique received" 16
scalar BaseNetwork.ap.umac "#received ift[100]" 16
scalar BaseNetwork.ap.umac "#received ift[101]" 16
scalar BaseNetwork.ap.umac "#total received" 32
scalar BaseNetwork.ap.umac "#total unique received" 16
scalar BaseNetwork.sta1.umac "#sent UDPData:0-16 on ift[100] at: " 5.689638158207
scalar BaseNetwork.sta1.umac "#sent UDPData:0-16 on ift[101] at: " 5.689638158207
scalar BaseNetwork.sta1.lmac[0].mac.hcf "#transmission UDPData:0-16 tried for " 0
scalar BaseNetwork.sta1.lmac[1].mac.hcf "#transmission UDPData:0-16 tried for " 0
scalar BaseNetwork.ap.umac "#received UDPData:0-16 on ift[101] at: " 5.689758491771
scalar BaseNetwork.ap.umac "#sent UDPData:0-16 on ift[100] at: " 5.689758491771
scalar BaseNetwork.ap.umac "#sent UDPData:0-16 on ift[101] at: " 5.689758491771
scalar BaseNetwork.ap.umac "#received UDPData:0-16 on ift[100] at: " 5.689846491771
scalar BaseNetwork.ap.lmac[1].mac.hcf "#transmission UDPData:0-16 tried for " 0
scalar BaseNetwork.ap.lmac[0].mac.hcf "#transmission UDPData:0-16 tried for " 0
scalar BaseNetwork.sta2.umac "#received UDPData:0-16 on ift[101] at: " 5.690089825335
scalar BaseNetwork.sta2.umac "#received UDPData:0-16 on ift[100] at: " 5.690220825335
scalar BaseNetwork.sta1.umac "#received ift[100]" 0
scalar BaseNetwork.sta1.umac "#received ift[101]" 0
scalar BaseNetwork.sta1.umac "#total received" 0
scalar BaseNetwork.sta1.umac "#total unique received" 0
scalar BaseNetwork.sta2.umac "#received ift[100]" 17
scalar BaseNetwork.sta2.umac "#received ift[101]" 17
scalar BaseNetwork.sta2.umac "#total received" 34
scalar BaseNetwork.sta2.umac "#total unique received" 17
scalar BaseNetwork.ap.umac "#received ift[100]" 17
scalar BaseNetwork.ap.umac "#received ift[101]" 17
scalar BaseNetwork.ap.umac "#total received" 34
scalar BaseNetwork.ap.umac "#total unique received" 17
scalar BaseNetwork.sta1.umac "#received ift[100]" 0
scalar BaseNetwork.sta1.umac "#received ift[101]" 0
scalar BaseNetwork.sta1.umac "#total received" 0
scalar BaseNetwork.sta1.umac "#total unique received" 0
scalar BaseNetwork.sta2.umac "#received ift[100]" 17
scalar BaseNetwork.sta2.umac "#received ift[101]" 17
scalar BaseNetwork.sta2.umac "#total received" 34
scalar BaseNetwork.sta2.umac "#total unique received" 17
scalar BaseNetwork.ap.umac "#received ift[100]" 17
scalar BaseNetwork.ap.umac "#received ift[101]" 17
scalar BaseNetwork.ap.umac "#total received" 34
scalar BaseNetwork.ap.umac "#total unique received" 17
scalar BaseNetwork.sta1.umac "#received ift[100]" 0
scalar BaseNetwork.sta1.umac "#received ift[101]" 0
scalar BaseNetwork.sta1.umac "#total received" 0
scalar BaseNetwork.sta1.umac "#total unique received" 0
scalar BaseNetwork.sta2.umac "#received ift[100]" 17
scalar BaseNetwork.sta2.umac "#received ift[101]" 17
scalar BaseNetwork.sta2.umac "#total received" 34
scalar BaseNetwork.sta2.umac "#total unique received" 17
scalar BaseNetwork.ap.umac "#received ift[100]" 17
scalar BaseNetwork.ap.umac "#received ift[101]" 17
scalar BaseNetwork.ap.umac "#total received" 34
scalar BaseNetwork.ap.umac "#total unique received" 17
scalar BaseNetwork.sta1.umac "#received ift[100]" 0
scalar BaseNetwork.sta1.umac "#received ift[101]" 0
scalar BaseNetwork.sta1.umac "#total received" 0
scalar BaseNetwork.sta1.umac "#total unique received" 0
scalar BaseNetwork.sta2.umac "#received ift[100]" 17
scalar BaseNetwork.sta2.umac "#received ift[101]" 17
scalar BaseNetwork.sta2.umac "#total received" 34
scalar BaseNetwork.sta2.umac "#total unique received" 17
scalar BaseNetwork.ap.umac "#received ift[100]" 17
scalar BaseNetwork.ap.umac "#received ift[101]" 17
scalar BaseNetwork.ap.umac "#total received" 34
scalar BaseNetwork.ap.umac "#total unique received" 17
scalar BaseNetwork.sta1.umac "#received ift[100]" 0
scalar BaseNetwork.sta1.umac "#received ift[101]" 0
scalar BaseNetwork.sta1.umac "#total received" 0
scalar BaseNetwork.sta1.umac "#total unique received" 0
scalar BaseNetwork.sta2.umac "#received ift[100]" 17
scalar BaseNetwork.sta2.umac "#received ift[101]" 17
scalar BaseNetwork.sta2.umac "#total received" 34
scalar BaseNetwork.sta2.umac "#total unique received" 17
scalar BaseNetwork.ap.umac "#received ift[100]" 17
scalar BaseNetwork.ap.umac "#received ift[101]" 17
scalar BaseNetwork.ap.umac "#total received" 34
scalar BaseNetwork.ap.umac "#total unique received" 17
scalar BaseNetwork.sta1.umac "#sent UDPData:0-17 on ift[100] at: " 6.100344450438
scalar BaseNetwork.sta1.umac "#sent UDPData:0-17 on ift[101] at: " 6.100344450438
scalar BaseNetwork.sta1.lmac[0].mac.hcf "#transmission UDPData:0-17 tried for " 0
scalar BaseNetwork.sta1.lmac[1].mac.hcf "#transmission UDPData:0-17 tried for " 0
scalar BaseNetwork.ap.umac "#received UDPData:0-17 on ift[101] at: " 6.100464784002
scalar BaseNetwork.ap.umac "#sent UDPData:0-17 on ift[100] at: " 6.100464784002
scalar BaseNetwork.ap.umac "#sent UDPData:0-17 on ift[101] at: " 6.100464784002
scalar BaseNetwork.ap.umac "#received UDPData:0-17 on ift[100] at: " 6.100552784002
scalar BaseNetwork.ap.lmac[1].mac.hcf "#transmission UDPData:0-17 tried for " 0
scalar BaseNetwork.sta2.umac "#received UDPData:0-17 on ift[101] at: " 6.100688117566
scalar BaseNetwork.ap.lmac[0].mac.hcf "#transmission UDPData:0-17 tried for " 0
scalar BaseNetwork.sta2.umac "#received UDPData:0-17 on ift[100] at: " 6.100945117566
scalar BaseNetwork.sta1.umac "#sent UDPData:0-18 on ift[100] at: " 6.189153383819
scalar BaseNetwork.sta1.umac "#sent UDPData:0-18 on ift[101] at: " 6.189153383819
scalar BaseNetwork.sta1.lmac[0].mac.hcf "#transmission UDPData:0-18 tried for " 0
scalar BaseNetwork.sta1.lmac[1].mac.hcf "#transmission UDPData:0-18 tried for " 0
scalar BaseNetwork.ap.umac "#received UDPData:0-18 on ift[101] at: " 6.189273717383
scalar BaseNetwork.ap.umac "#sent UDPData:0-18 on ift[100] at: " 6.189273717383
scalar BaseNetwork.ap.umac "#sent UDPData:0-18 on ift[101] at: " 6.189273717383
scalar BaseNetwork.ap.umac "#received UDPData:0-18 on ift[100] at: " 6.189361717383
scalar BaseNetwork.ap.lmac[1].mac.hcf "#transmission UDPData:0-18 tried for " 0
scalar BaseNetwork.sta2.umac "#received UDPData:0-18 on ift[101] at: " 6.189533050947
scalar BaseNetwork.ap.lmac[0].mac.hcf "#transmission UDPData:0-18 tried for " 0
scalar BaseNetwork.sta2.umac "#received UDPData:0-18 on ift[100] at: " 6.189772050947
scalar BaseNetwork.sta1.umac "#received ift[100]" 0
scalar BaseNetwork.sta1.umac "#received ift[101]" 0
scalar BaseNetwork.sta1.umac "#total received" 0
scalar BaseNetwork.sta1.umac "#total unique received" 0
scalar BaseNetwork.sta2.umac "#received ift[100]" 19
scalar BaseNetwork.sta2.umac "#received ift[101]" 19
scalar BaseNetwork.sta2.umac "#total received" 38
scalar BaseNetwork.sta2.umac "#total unique received" 19
scalar BaseNetwork.ap.umac "#received ift[100]" 19
scalar BaseNetwork.ap.umac "#received ift[101]" 19
scalar BaseNetwork.ap.umac "#total received" 38
scalar BaseNetwork.ap.umac "#total unique received" 19
scalar BaseNetwork.sta1.umac "#received ift[100]" 0
scalar BaseNetwork.sta1.umac "#received ift[101]" 0
scalar BaseNetwork.sta1.umac "#total received" 0
scalar BaseNetwork.sta1.umac "#total unique received" 0
scalar BaseNetwork.sta2.umac "#received ift[100]" 19
scalar BaseNetwork.sta2.umac "#received ift[101]" 19
scalar BaseNetwork.sta2.umac "#total received" 38
scalar BaseNetwork.sta2.umac "#total unique received" 19
scalar BaseNetwork.ap.umac "#received ift[100]" 19
scalar BaseNetwork.ap.umac "#received ift[101]" 19
scalar BaseNetwork.ap.umac "#total received" 38
scalar BaseNetwork.ap.umac "#total unique received" 19
scalar BaseNetwork.sta1.umac "#received ift[100]" 0
scalar BaseNetwork.sta1.umac "#received ift[101]" 0
scalar BaseNetwork.sta1.umac "#total received" 0
scalar BaseNetwork.sta1.umac "#total unique received" 0
scalar BaseNetwork.sta2.umac "#received ift[100]" 19
scalar BaseNetwork.sta2.umac "#received ift[101]" 19
scalar BaseNetwork.sta2.umac "#total received" 38
scalar BaseNetwork.sta2.umac "#total unique received" 19
scalar BaseNetwork.ap.umac "#received ift[100]" 19
scalar BaseNetwork.ap.umac "#received ift[101]" 19
scalar BaseNetwork.ap.umac "#total received" 38
scalar BaseNetwork.ap.umac "#total unique received" 19
scalar BaseNetwork.sta1.umac "#received ift[100]" 0
scalar BaseNetwork.sta1.umac "#received ift[101]" 0
scalar BaseNetwork.sta1.umac "#total received" 0
scalar BaseNetwork.sta1.umac "#total unique received" 0
scalar BaseNetwork.sta2.umac "#received ift[100]" 19
scalar BaseNetwork.sta2.umac "#received ift[101]" 19
scalar BaseNetwork.sta2.umac "#total received" 38
scalar BaseNetwork.sta2.umac "#total unique received" 19
scalar BaseNetwork.ap.umac "#received ift[100]" 19
scalar BaseNetwork.ap.umac "#received ift[101]" 19
scalar BaseNetwork.ap.umac "#total received" 38
scalar BaseNetwork.ap.umac "#total unique received" 19
scalar BaseNetwork.sta1.umac "#sent UDPData:0-19 on ift[100] at: " 6.533335839789
scalar BaseNetwork.sta1.umac "#sent UDPData:0-19 on ift[101] at: " 6.533335839789
scalar BaseNetwork.sta1.lmac[0].mac.hcf "#transmission UDPData:0-19 tried for " 0
scalar BaseNetwork.sta1.lmac[1].mac.hcf "#transmission UDPData:0-19 tried for " 0
scalar BaseNetwork.ap.umac "#received UDPData:0-19 on ift[101] at: " 6.533456173353
scalar BaseNetwork.ap.umac "#sent UDPData:0-19 on ift[100] at: " 6.533456173353
scalar BaseNetwork.ap.umac "#sent UDPData:0-19 on ift[101] at: " 6.533456173353
scalar BaseNetwork.ap.umac "#received UDPData:0-19 on ift[100] at: " 6.533544173353
scalar BaseNetwork.ap.lmac[1].mac.hcf "#transmission UDPData:0-19 tried for " 0
scalar BaseNetwork.sta2.umac "#received UDPData:0-19 on ift[101] at: " 6.533715506917
scalar BaseNetwork.ap.lmac[0].mac.hcf "#transmission UDPData:0-19 tried for " 0
scalar BaseNetwork.sta2.umac "#received UDPData:0-19 on ift[100] at: " 6.533936506917
scalar BaseNetwork.sta1.umac "#received ift[100]" 0
scalar BaseNetwork.sta1.umac "#received ift[101]" 0
scalar BaseNetwork.sta1.umac "#total received" 0
scalar BaseNetwork.sta1.umac "#total unique received" 0
scalar BaseNetwork.sta2.umac "#received ift[100]" 20
scalar BaseNetwork.sta2.umac "#received ift[101]" 20
scalar BaseNetwork.sta2.umac "#total received" 40
scalar BaseNetwork.sta2.umac "#total unique received" 20
scalar BaseNetwork.ap.umac "#received ift[100]" 20
scalar BaseNetwork.ap.umac "#received ift[101]" 20
scalar BaseNetwork.ap.umac "#total received" 40
scalar BaseNetwork.ap.umac "#total unique received" 20
scalar BaseNetwork.sta1.umac "#received ift[100]" 0
scalar BaseNetwork.sta1.umac "#received ift[101]" 0
scalar BaseNetwork.sta1.umac "#total received" 0
scalar BaseNetwork.sta1.umac "#total unique received" 0
scalar BaseNetwork.sta2.umac "#received ift[100]" 20
scalar BaseNetwork.sta2.umac "#received ift[101]" 20
scalar BaseNetwork.sta2.umac "#total received" 40
scalar BaseNetwork.sta2.umac "#total unique received" 20
scalar BaseNetwork.ap.umac "#received ift[100]" 20
scalar BaseNetwork.ap.umac "#received ift[101]" 20
scalar BaseNetwork.ap.umac "#total received" 40
scalar BaseNetwork.ap.umac "#total unique received" 20
scalar BaseNetwork.sta1.umac "#received ift[100]" 0
scalar BaseNetwork.sta1.umac "#received ift[101]" 0
scalar BaseNetwork.sta1.umac "#total received" 0
scalar BaseNetwork.sta1.umac "#total unique received" 0
scalar BaseNetwork.sta2.umac "#received ift[100]" 20
scalar BaseNetwork.sta2.umac "#received ift[101]" 20
scalar BaseNetwork.sta2.umac "#total received" 40
scalar BaseNetwork.sta2.umac "#total unique received" 20
scalar BaseNetwork.ap.umac "#received ift[100]" 20
scalar BaseNetwork.ap.umac "#received ift[101]" 20
scalar BaseNetwork.ap.umac "#total received" 40
scalar BaseNetwork.ap.umac "#total unique received" 20
scalar BaseNetwork.sta1.umac "#received ift[100]" 0
scalar BaseNetwork.sta1.umac "#received ift[101]" 0
scalar BaseNetwork.sta1.umac "#total received" 0
scalar BaseNetwork.sta1.umac "#total unique received" 0
scalar BaseNetwork.sta2.umac "#received ift[100]" 20
scalar BaseNetwork.sta2.umac "#received ift[101]" 20
scalar BaseNetwork.sta2.umac "#total received" 40
scalar BaseNetwork.sta2.umac "#total unique received" 20
scalar BaseNetwork.ap.umac "#received ift[100]" 20
scalar BaseNetwork.ap.umac "#received ift[101]" 20
scalar BaseNetwork.ap.umac "#total received" 40
scalar BaseNetwork.ap.umac "#total unique received" 20
scalar BaseNetwork.sta1.umac "#received ift[100]" 0
scalar BaseNetwork.sta1.umac "#received ift[101]" 0
scalar BaseNetwork.sta1.umac "#total received" 0
scalar BaseNetwork.sta1.umac "#total unique received" 0
scalar BaseNetwork.sta2.umac "#received ift[100]" 20
scalar BaseNetwork.sta2.umac "#received ift[101]" 20
scalar BaseNetwork.sta2.umac "#total received" 40
scalar BaseNetwork.sta2.umac "#total unique received" 20
scalar BaseNetwork.ap.umac "#received ift[100]" 20
scalar BaseNetwork.ap.umac "#received ift[101]" 20
scalar BaseNetwork.ap.umac "#total received" 40
scalar BaseNetwork.ap.umac "#total unique received" 20
scalar BaseNetwork.sta1.umac "#received ift[100]" 0
scalar BaseNetwork.sta1.umac "#received ift[101]" 0
scalar BaseNetwork.sta1.umac "#total received" 0
scalar BaseNetwork.sta1.umac "#total unique received" 0
scalar BaseNetwork.sta2.umac "#received ift[100]" 20
scalar BaseNetwork.sta2.umac "#received ift[101]" 20
scalar BaseNetwork.sta2.umac "#total received" 40
scalar BaseNetwork.sta2.umac "#total unique received" 20
scalar BaseNetwork.ap.umac "#received ift[100]" 20
scalar BaseNetwork.ap.umac "#received ift[101]" 20
scalar BaseNetwork.ap.umac "#total received" 40
scalar BaseNetwork.ap.umac "#total unique received" 20
scalar BaseNetwork.sta1.umac "#received ift[100]" 0
scalar BaseNetwork.sta1.umac "#received ift[101]" 0
scalar BaseNetwork.sta1.umac "#total received" 0
scalar BaseNetwork.sta1.umac "#total unique received" 0
scalar BaseNetwork.sta2.umac "#received ift[100]" 20
scalar BaseNetwork.sta2.umac "#received ift[101]" 20
scalar BaseNetwork.sta2.umac "#total received" 40
scalar BaseNetwork.sta2.umac "#total unique received" 20
scalar BaseNetwork.ap.umac "#received ift[100]" 20
scalar BaseNetwork.ap.umac "#received ift[101]" 20
scalar BaseNetwork.ap.umac "#total received" 40
scalar BaseNetwork.ap.umac "#total unique received" 20
scalar BaseNetwork.sta1.umac "#received ift[100]" 0
scalar BaseNetwork.sta1.umac "#received ift[101]" 0
scalar BaseNetwork.sta1.umac "#total received" 0
scalar BaseNetwork.sta1.umac "#total unique received" 0
scalar BaseNetwork.sta2.umac "#received ift[100]" 20
scalar BaseNetwork.sta2.umac "#received ift[101]" 20
scalar BaseNetwork.sta2.umac "#total received" 40
scalar BaseNetwork.sta2.umac "#total unique received" 20
scalar BaseNetwork.ap.umac "#received ift[100]" 20
scalar BaseNetwork.ap.umac "#received ift[101]" 20
scalar BaseNetwork.ap.umac "#total received" 40
scalar BaseNetwork.ap.umac "#total unique received" 20
scalar BaseNetwork.sta1.umac "#received ift[100]" 0
scalar BaseNetwork.sta1.umac "#received ift[101]" 0
scalar BaseNetwork.sta1.umac "#total received" 0
scalar BaseNetwork.sta1.umac "#total unique received" 0
scalar BaseNetwork.sta2.umac "#received ift[100]" 20
scalar BaseNetwork.sta2.umac "#received ift[101]" 20
scalar BaseNetwork.sta2.umac "#total received" 40
scalar BaseNetwork.sta2.umac "#total unique received" 20
scalar BaseNetwork.ap.umac "#received ift[100]" 20
scalar BaseNetwork.ap.umac "#received ift[101]" 20
scalar BaseNetwork.ap.umac "#total received" 40
scalar BaseNetwork.ap.umac "#total unique received" 20
scalar BaseNetwork.sta1.umac "#received ift[100]" 0
scalar BaseNetwork.sta1.umac "#received ift[101]" 0
scalar BaseNetwork.sta1.umac "#total received" 0
scalar BaseNetwork.sta1.umac "#total unique received" 0
scalar BaseNetwork.sta2.umac "#received ift[100]" 20
scalar BaseNetwork.sta2.umac "#received ift[101]" 20
scalar BaseNetwork.sta2.umac "#total received" 40
scalar BaseNetwork.sta2.umac "#total unique received" 20
scalar BaseNetwork.ap.umac "#received ift[100]" 20
scalar BaseNetwork.ap.umac "#received ift[101]" 20
scalar BaseNetwork.ap.umac "#total received" 40
scalar BaseNetwork.ap.umac "#total unique received" 20
scalar BaseNetwork.sta1.umac "#received ift[100]" 0
scalar BaseNetwork.sta1.umac "#received ift[101]" 0
scalar BaseNetwork.sta1.umac "#total received" 0
scalar BaseNetwork.sta1.umac "#total unique received" 0
scalar BaseNetwork.sta2.umac "#received ift[100]" 20
scalar BaseNetwork.sta2.umac "#received ift[101]" 20
scalar BaseNetwork.sta2.umac "#total received" 40
scalar BaseNetwork.sta2.umac "#total unique received" 20
scalar BaseNetwork.ap.umac "#received ift[100]" 20
scalar BaseNetwork.ap.umac "#received ift[101]" 20
scalar BaseNetwork.ap.umac "#total received" 40
scalar BaseNetwork.ap.umac "#total unique received" 20
scalar BaseNetwork.sta1.umac "#received ift[100]" 0
scalar BaseNetwork.sta1.umac "#received ift[101]" 0
scalar BaseNetwork.sta1.umac "#total received" 0
scalar BaseNetwork.sta1.umac "#total unique received" 0
scalar BaseNetwork.sta2.umac "#received ift[100]" 20
scalar BaseNetwork.sta2.umac "#received ift[101]" 20
scalar BaseNetwork.sta2.umac "#total received" 40
scalar BaseNetwork.sta2.umac "#total unique received" 20
scalar BaseNetwork.ap.umac "#received ift[100]" 20
scalar BaseNetwork.ap.umac "#received ift[101]" 20
scalar BaseNetwork.ap.umac "#total received" 40
scalar BaseNetwork.ap.umac "#total unique received" 20
scalar BaseNetwork.sta1.umac "#received ift[100]" 0
scalar BaseNetwork.sta1.umac "#received ift[101]" 0
scalar BaseNetwork.sta1.umac "#total received" 0
scalar BaseNetwork.sta1.umac "#total unique received" 0
scalar BaseNetwork.sta2.umac "#received ift[100]" 20
scalar BaseNetwork.sta2.umac "#received ift[101]" 20
scalar BaseNetwork.sta2.umac "#total received" 40
scalar BaseNetwork.sta2.umac "#total unique received" 20
scalar BaseNetwork.ap.umac "#received ift[100]" 20
scalar BaseNetwork.ap.umac "#received ift[101]" 20
scalar BaseNetwork.ap.umac "#total received" 40
scalar BaseNetwork.ap.umac "#total unique received" 20
scalar BaseNetwork.sta1.umac "#received ift[100]" 0
scalar BaseNetwork.sta1.umac "#received ift[101]" 0
scalar BaseNetwork.sta1.umac "#total received" 0
scalar BaseNetwork.sta1.umac "#total unique received" 0
scalar BaseNetwork.sta2.umac "#received ift[100]" 20
scalar BaseNetwork.sta2.umac "#received ift[101]" 20
scalar BaseNetwork.sta2.umac "#total received" 40
scalar BaseNetwork.sta2.umac "#total unique received" 20
scalar BaseNetwork.ap.umac "#received ift[100]" 20
scalar BaseNetwork.ap.umac "#received ift[101]" 20
scalar BaseNetwork.ap.umac "#total received" 40
scalar BaseNetwork.ap.umac "#total unique received" 20
scalar BaseNetwork.sta1.umac "#sent UDPData:0-20 on ift[100] at: " 7.958182096439
scalar BaseNetwork.sta1.umac "#sent UDPData:0-20 on ift[101] at: " 7.958182096439
scalar BaseNetwork.sta1.lmac[0].mac.hcf "#transmission UDPData:0-20 tried for " 0
scalar BaseNetwork.sta1.lmac[1].mac.hcf "#transmission UDPData:0-20 tried for " 0
scalar BaseNetwork.ap.umac "#received UDPData:0-20 on ift[101] at: " 7.958302430003
scalar BaseNetwork.ap.umac "#sent UDPData:0-20 on ift[100] at: " 7.958302430003
scalar BaseNetwork.ap.umac "#sent UDPData:0-20 on ift[101] at: " 7.958302430003
scalar BaseNetwork.ap.umac "#received UDPData:0-20 on ift[100] at: " 7.958390430003
scalar BaseNetwork.ap.lmac[1].mac.hcf "#transmission UDPData:0-20 tried for " 0
scalar BaseNetwork.ap.lmac[0].mac.hcf "#transmission UDPData:0-20 tried for " 0
scalar BaseNetwork.sta2.umac "#received UDPData:0-20 on ift[101] at: " 7.958606763567
scalar BaseNetwork.sta2.umac "#received UDPData:0-20 on ift[100] at: " 7.958800763567
scalar BaseNetwork.sta1.umac "#received ift[100]" 0
scalar BaseNetwork.sta1.umac "#received ift[101]" 0
scalar BaseNetwork.sta1.umac "#total received" 0
scalar BaseNetwork.sta1.umac "#total unique received" 0
scalar BaseNetwork.sta2.umac "#received ift[100]" 21
scalar BaseNetwork.sta2.umac "#received ift[101]" 21
scalar BaseNetwork.sta2.umac "#total received" 42
scalar BaseNetwork.sta2.umac "#total unique received" 21
scalar BaseNetwork.ap.umac "#received ift[100]" 21
scalar BaseNetwork.ap.umac "#received ift[101]" 21
scalar BaseNetwork.ap.umac "#total received" 42
scalar BaseNetwork.ap.umac "#total unique received" 21
scalar BaseNetwork.sta1.umac "#received ift[100]" 0
scalar BaseNetwork.sta1.umac "#received ift[101]" 0
scalar BaseNetwork.sta1.umac "#total received" 0
scalar BaseNetwork.sta1.umac "#total unique received" 0
scalar BaseNetwork.sta2.umac "#received ift[100]" 21
scalar BaseNetwork.sta2.umac "#received ift[101]" 21
scalar BaseNetwork.sta2.umac "#total received" 42
scalar BaseNetwork.sta2.umac "#total unique received" 21
scalar BaseNetwork.ap.umac "#received ift[100]" 21
scalar BaseNetwork.ap.umac "#received ift[101]" 21
scalar BaseNetwork.ap.umac "#total received" 42
scalar BaseNetwork.ap.umac "#total unique received" 21
scalar BaseNetwork.sta1.umac "#received ift[100]" 0
scalar BaseNetwork.sta1.umac "#received ift[101]" 0
scalar BaseNetwork.sta1.umac "#total received" 0
scalar BaseNetwork.sta1.umac "#total unique received" 0
scalar BaseNetwork.sta2.umac "#received ift[100]" 21
scalar BaseNetwork.sta2.umac "#received ift[101]" 21
scalar BaseNetwork.sta2.umac "#total received" 42
scalar BaseNetwork.sta2.umac "#total unique received" 21
scalar BaseNetwork.ap.umac "#received ift[100]" 21
scalar BaseNetwork.ap.umac "#received ift[101]" 21
scalar BaseNetwork.ap.umac "#total received" 42
scalar BaseNetwork.ap.umac "#total unique received" 21
scalar BaseNetwork.sta1.umac "#received ift[100]" 0
scalar BaseNetwork.sta1.umac "#received ift[101]" 0
scalar BaseNetwork.sta1.umac "#total received" 0
scalar BaseNetwork.sta1.umac "#total unique received" 0
scalar BaseNetwork.sta2.umac "#received ift[100]" 21
scalar BaseNetwork.sta2.umac "#received ift[101]" 21
scalar BaseNetwork.sta2.umac "#total received" 42
scalar BaseNetwork.sta2.umac "#total unique received" 21
scalar BaseNetwork.ap.umac "#received ift[100]" 21
scalar BaseNetwork.ap.umac "#received ift[101]" 21
scalar BaseNetwork.ap.umac "#total received" 42
scalar BaseNetwork.ap.umac "#total unique received" 21
scalar BaseNetwork.sta1.umac "#received ift[100]" 0
scalar BaseNetwork.sta1.umac "#received ift[101]" 0
scalar BaseNetwork.sta1.umac "#total received" 0
scalar BaseNetwork.sta1.umac "#total unique received" 0
scalar BaseNetwork.sta2.umac "#received ift[100]" 21
scalar BaseNetwork.sta2.umac "#received ift[101]" 21
scalar BaseNetwork.sta2.umac "#total received" 42
scalar BaseNetwork.sta2.umac "#total unique received" 21
scalar BaseNetwork.ap.umac "#received ift[100]" 21
scalar BaseNetwork.ap.umac "#received ift[101]" 21
scalar BaseNetwork.ap.umac "#total received" 42
scalar BaseNetwork.ap.umac "#total unique received" 21
scalar BaseNetwork.sta1.umac "#received ift[100]" 0
scalar BaseNetwork.sta1.umac "#received ift[101]" 0
scalar BaseNetwork.sta1.umac "#total received" 0
scalar BaseNetwork.sta1.umac "#total unique received" 0
scalar BaseNetwork.sta2.umac "#received ift[100]" 21
scalar BaseNetwork.sta2.umac "#received ift[101]" 21
scalar BaseNetwork.sta2.umac "#total received" 42
scalar BaseNetwork.sta2.umac "#total unique received" 21
scalar BaseNetwork.ap.umac "#received ift[100]" 21
scalar BaseNetwork.ap.umac "#received ift[101]" 21
scalar BaseNetwork.ap.umac "#total received" 42
scalar BaseNetwork.ap.umac "#total unique received" 21
scalar BaseNetwork.sta1.umac "#received ift[100]" 0
scalar BaseNetwork.sta1.umac "#received ift[101]" 0
scalar BaseNetwork.sta1.umac "#total received" 0
scalar BaseNetwork.sta1.umac "#total unique received" 0
scalar BaseNetwork.sta2.umac "#received ift[100]" 21
scalar BaseNetwork.sta2.umac "#received ift[101]" 21
scalar BaseNetwork.sta2.umac "#total received" 42
scalar BaseNetwork.sta2.umac "#total unique received" 21
scalar BaseNetwork.ap.umac "#received ift[100]" 21
scalar BaseNetwork.ap.umac "#received ift[101]" 21
scalar BaseNetwork.ap.umac "#total received" 42
scalar BaseNetwork.ap.umac "#total unique received" 21
scalar BaseNetwork.sta1.umac "#received ift[100]" 0
scalar BaseNetwork.sta1.umac "#received ift[101]" 0
scalar BaseNetwork.sta1.umac "#total received" 0
scalar BaseNetwork.sta1.umac "#total unique received" 0
scalar BaseNetwork.sta2.umac "#received ift[100]" 21
scalar BaseNetwork.sta2.umac "#received ift[101]" 21
scalar BaseNetwork.sta2.umac "#total received" 42
scalar BaseNetwork.sta2.umac "#total unique received" 21
scalar BaseNetwork.ap.umac "#received ift[100]" 21
scalar BaseNetwork.ap.umac "#received ift[101]" 21
scalar BaseNetwork.ap.umac "#total received" 42
scalar BaseNetwork.ap.umac "#total unique received" 21
scalar BaseNetwork.sta1.umac "#received ift[100]" 0
scalar BaseNetwork.sta1.umac "#received ift[101]" 0
scalar BaseNetwork.sta1.umac "#total received" 0
scalar BaseNetwork.sta1.umac "#total unique received" 0
scalar BaseNetwork.sta2.umac "#received ift[100]" 21
scalar BaseNetwork.sta2.umac "#received ift[101]" 21
scalar BaseNetwork.sta2.umac "#total received" 42
scalar BaseNetwork.sta2.umac "#total unique received" 21
scalar BaseNetwork.ap.umac "#received ift[100]" 21
scalar BaseNetwork.ap.umac "#received ift[101]" 21
scalar BaseNetwork.ap.umac "#total received" 42
scalar BaseNetwork.ap.umac "#total unique received" 21
scalar BaseNetwork.sta1.umac "#received ift[100]" 0
scalar BaseNetwork.sta1.umac "#received ift[101]" 0
scalar BaseNetwork.sta1.umac "#total received" 0
scalar BaseNetwork.sta1.umac "#total unique received" 0
scalar BaseNetwork.sta2.umac "#received ift[100]" 21
scalar BaseNetwork.sta2.umac "#received ift[101]" 21
scalar BaseNetwork.sta2.umac "#total received" 42
scalar BaseNetwork.sta2.umac "#total unique received" 21
scalar BaseNetwork.ap.umac "#received ift[100]" 21
scalar BaseNetwork.ap.umac "#received ift[101]" 21
scalar BaseNetwork.ap.umac "#total received" 42
scalar BaseNetwork.ap.umac "#total unique received" 21
scalar BaseNetwork.sta1.umac "#received ift[100]" 0
scalar BaseNetwork.sta1.umac "#received ift[101]" 0
scalar BaseNetwork.sta1.umac "#total received" 0
scalar BaseNetwork.sta1.umac "#total unique received" 0
scalar BaseNetwork.sta2.umac "#received ift[100]" 21
scalar BaseNetwork.sta2.umac "#received ift[101]" 21
scalar BaseNetwork.sta2.umac "#total received" 42
scalar BaseNetwork.sta2.umac "#total unique received" 21
scalar BaseNetwork.ap.umac "#received ift[100]" 21
scalar BaseNetwork.ap.umac "#received ift[101]" 21
scalar BaseNetwork.ap.umac "#total received" 42
scalar BaseNetwork.ap.umac "#total unique received" 21
scalar BaseNetwork.sta1.umac "#received ift[100]" 0
scalar BaseNetwork.sta1.umac "#received ift[101]" 0
scalar BaseNetwork.sta1.umac "#total received" 0
scalar BaseNetwork.sta1.umac "#total unique received" 0
scalar BaseNetwork.sta2.umac "#received ift[100]" 21
scalar BaseNetwork.sta2.umac "#received ift[101]" 21
scalar BaseNetwork.sta2.umac "#total received" 42
scalar BaseNetwork.sta2.umac "#total unique received" 21
scalar BaseNetwork.ap.umac "#received ift[100]" 21
scalar BaseNetwork.ap.umac "#received ift[101]" 21
scalar BaseNetwork.ap.umac "#total received" 42
scalar BaseNetwork.ap.umac "#total unique received" 21
scalar BaseNetwork.sta1.umac "#sent UDPData:0-21 on ift[100] at: " 9.112600044215
scalar BaseNetwork.sta1.umac "#sent UDPData:0-21 on ift[101] at: " 9.112600044215
scalar BaseNetwork.sta1.lmac[0].mac.hcf "#transmission UDPData:0-21 tried for " 0
scalar BaseNetwork.sta1.lmac[1].mac.hcf "#transmission UDPData:0-21 tried for " 0
scalar BaseNetwork.ap.umac "#received UDPData:0-21 on ift[101] at: " 9.112720377779
scalar BaseNetwork.ap.umac "#sent UDPData:0-21 on ift[100] at: " 9.112720377779
scalar BaseNetwork.ap.umac "#sent UDPData:0-21 on ift[101] at: " 9.112720377779
scalar BaseNetwork.ap.umac "#received UDPData:0-21 on ift[100] at: " 9.112808377779
scalar BaseNetwork.ap.lmac[1].mac.hcf "#transmission UDPData:0-21 tried for " 0
scalar BaseNetwork.sta2.umac "#received UDPData:0-21 on ift[101] at: " 9.112988711343
scalar BaseNetwork.ap.lmac[0].mac.hcf "#transmission UDPData:0-21 tried for " 0
scalar BaseNetwork.sta2.umac "#received UDPData:0-21 on ift[100] at: " 9.113254711343
scalar BaseNetwork.sta1.umac "#received ift[100]" 0
scalar BaseNetwork.sta1.umac "#received ift[101]" 0
scalar BaseNetwork.sta1.umac "#total received" 0
scalar BaseNetwork.sta1.umac "#total unique received" 0
scalar BaseNetwork.sta2.umac "#received ift[100]" 22
scalar BaseNetwork.sta2.umac "#received ift[101]" 22
scalar BaseNetwork.sta2.umac "#total received" 44
scalar BaseNetwork.sta2.umac "#total unique received" 22
scalar BaseNetwork.ap.umac "#received ift[100]" 22
scalar BaseNetwork.ap.umac "#received ift[101]" 22
scalar BaseNetwork.ap.umac "#total received" 44
scalar BaseNetwork.ap.umac "#total unique received" 22
scalar BaseNetwork.sta1.umac "#sent UDPData:0-22 on ift[100] at: " 9.247667145795
scalar BaseNetwork.sta1.umac "#sent UDPData:0-22 on ift[101] at: " 9.247667145795
scalar BaseNetwork.sta1.lmac[0].mac.hcf "#transmission UDPData:0-22 tried for " 0
scalar BaseNetwork.sta1.lmac[1].mac.hcf "#transmission UDPData:0-22 tried for " 0
scalar BaseNetwork.ap.umac "#received UDPData:0-22 on ift[101] at: " 9.247787479359
scalar BaseNetwork.ap.umac "#sent UDPData:0-22 on ift[100] at: " 9.247787479359
scalar BaseNetwork.ap.umac "#sent UDPData:0-22 on ift[101] at: " 9.247787479359
scalar BaseNetwork.ap.umac "#received UDPData:0-22 on ift[100] at: " 9.247875479359
scalar BaseNetwork.ap.lmac[1].mac.hcf "#transmission UDPData:0-22 tried for " 0
scalar BaseNetwork.ap.lmac[0].mac.hcf "#transmission UDPData:0-22 tried for " 0
scalar BaseNetwork.sta2.umac "#received UDPData:0-22 on ift[101] at: " 9.248064812923
scalar BaseNetwork.sta2.umac "#received UDPData:0-22 on ift[100] at: " 9.248240812923
scalar BaseNetwork.sta1.umac "#received ift[100]" 0
scalar BaseNetwork.sta1.umac "#received ift[101]" 0
scalar BaseNetwork.sta1.umac "#total received" 0
scalar BaseNetwork.sta1.umac "#total unique received" 0
scalar BaseNetwork.sta2.umac "#received ift[100]" 23
scalar BaseNetwork.sta2.umac "#received ift[101]" 23
scalar BaseNetwork.sta2.umac "#total received" 46
scalar BaseNetwork.sta2.umac "#total unique received" 23
scalar BaseNetwork.ap.umac "#received ift[100]" 23
scalar BaseNetwork.ap.umac "#received ift[101]" 23
scalar BaseNetwork.ap.umac "#total received" 46
scalar BaseNetwork.ap.umac "#total unique received" 23
scalar BaseNetwork.sta1.umac "#received ift[100]" 0
scalar BaseNetwork.sta1.umac "#received ift[101]" 0
scalar BaseNetwork.sta1.umac "#total received" 0
scalar BaseNetwork.sta1.umac "#total unique received" 0
scalar BaseNetwork.sta2.umac "#received ift[100]" 23
scalar BaseNetwork.sta2.umac "#received ift[101]" 23
scalar BaseNetwork.sta2.umac "#total received" 46
scalar BaseNetwork.sta2.umac "#total unique received" 23
scalar BaseNetwork.ap.umac "#received ift[100]" 23
scalar BaseNetwork.ap.umac "#received ift[101]" 23
scalar BaseNetwork.ap.umac "#total received" 46
scalar BaseNetwork.ap.umac "#total unique received" 23
scalar BaseNetwork.sta1.umac "#sent UDPData:0-23 on ift[100] at: " 9.447679969716
scalar BaseNetwork.sta1.umac "#sent UDPData:0-23 on ift[101] at: " 9.447679969716
scalar BaseNetwork.sta1.lmac[0].mac.hcf "#transmission UDPData:0-23 tried for " 0
scalar BaseNetwork.sta1.lmac[1].mac.hcf "#transmission UDPData:0-23 tried for " 0
scalar BaseNetwork.ap.umac "#received UDPData:0-23 on ift[101] at: " 9.44780030328
scalar BaseNetwork.ap.umac "#sent UDPData:0-23 on ift[100] at: " 9.44780030328
scalar BaseNetwork.ap.umac "#sent UDPData:0-23 on ift[101] at: " 9.44780030328
scalar BaseNetwork.ap.umac "#received UDPData:0-23 on ift[100] at: " 9.44788830328
scalar BaseNetwork.ap.lmac[1].mac.hcf "#transmission UDPData:0-23 tried for " 0
scalar BaseNetwork.sta2.umac "#received UDPData:0-23 on ift[101] at: " 9.448041636844
scalar BaseNetwork.ap.lmac[0].mac.hcf "#transmission UDPData:0-23 tried for " 0
scalar BaseNetwork.sta2.umac "#received UDPData:0-23 on ift[100] at: " 9.448334636844
scalar BaseNetwork.sta1.umac "#received ift[100]" 0
scalar BaseNetwork.sta1.umac "#received ift[101]" 0
scalar BaseNetwork.sta1.umac "#total received" 0
scalar BaseNetwork.sta1.umac "#total unique received" 0
scalar BaseNetwork.sta2.umac "#received ift[100]" 24
scalar BaseNetwork.sta2.umac "#received ift[101]" 24
scalar BaseNetwork.sta2.umac "#total received" 48
scalar BaseNetwork.sta2.umac "#total unique received" 24
scalar BaseNetwork.ap.umac "#received ift[100]" 24
scalar BaseNetwork.ap.umac "#received ift[101]" 24
scalar BaseNetwork.ap.umac "#total received" 48
scalar BaseNetwork.ap.umac "#total unique received" 24
scalar BaseNetwork.sta1.umac "#sent UDPData:0-24 on ift[100] at: " 9.59838383291
scalar BaseNetwork.sta1.umac "#sent UDPData:0-24 on ift[101] at: " 9.59838383291
scalar BaseNetwork.sta1.lmac[0].mac.hcf "#transmission UDPData:0-24 tried for " 0
scalar BaseNetwork.sta1.lmac[1].mac.hcf "#transmission UDPData:0-24 tried for " 0
scalar BaseNetwork.ap.umac "#received UDPData:0-24 on ift[101] at: " 9.598504166474
scalar BaseNetwork.ap.umac "#sent UDPData:0-24 on ift[100] at: " 9.598504166474
scalar BaseNetwork.ap.umac "#sent UDPData:0-24 on ift[101] at: " 9.598504166474
scalar BaseNetwork.ap.umac "#received UDPData:0-24 on ift[100] at: " 9.598592166474
scalar BaseNetwork.ap.lmac[1].mac.hcf "#transmission UDPData:0-24 tried for " 0
scalar BaseNetwork.ap.lmac[0].mac.hcf "#transmission UDPData:0-24 tried for " 0
scalar BaseNetwork.sta2.umac "#received UDPData:0-24 on ift[101] at: " 9.598799500038
scalar BaseNetwork.sta2.umac "#received UDPData:0-24 on ift[100] at: " 9.598912500038
scalar BaseNetwork.sta1.umac "#received ift[100]" 0
scalar BaseNetwork.sta1.umac "#received ift[101]" 0
scalar BaseNetwork.sta1.umac "#total received" 0
scalar BaseNetwork.sta1.umac "#total unique received" 0
scalar BaseNetwork.sta2.umac "#received ift[100]" 25
scalar BaseNetwork.sta2.umac "#received ift[101]" 25
scalar BaseNetwork.sta2.umac "#total received" 50
scalar BaseNetwork.sta2.umac "#total unique received" 25
scalar BaseNetwork.ap.umac "#received ift[100]" 25
scalar BaseNetwork.ap.umac "#received ift[101]" 25
scalar BaseNetwork.ap.umac "#total received" 50
scalar BaseNetwork.ap.umac "#total unique received" 25
scalar BaseNetwork.sta1.umac "#received ift[100]" 0
scalar BaseNetwork.sta1.umac "#received ift[101]" 0
scalar BaseNetwork.sta1.umac "#total received" 0
scalar BaseNetwork.sta1.umac "#total unique received" 0
scalar BaseNetwork.sta2.umac "#received ift[100]" 25
scalar BaseNetwork.sta2.umac "#received ift[101]" 25
scalar BaseNetwork.sta2.umac "#total received" 50
scalar BaseNetwork.sta2.umac "#total unique received" 25
scalar BaseNetwork.ap.umac "#received ift[100]" 25
scalar BaseNetwork.ap.umac "#received ift[101]" 25
scalar BaseNetwork.ap.umac "#total received" 50
scalar BaseNetwork.ap.umac "#total unique received" 25
scalar BaseNetwork.sta1.umac "#received ift[100]" 0
scalar BaseNetwork.sta1.umac "#received ift[101]" 0
scalar BaseNetwork.sta1.umac "#total received" 0
scalar BaseNetwork.sta1.umac "#total unique received" 0
scalar BaseNetwork.sta2.umac "#received ift[100]" 25
scalar BaseNetwork.sta2.umac "#received ift[101]" 25
scalar BaseNetwork.sta2.umac "#total received" 50
scalar BaseNetwork.sta2.umac "#total unique received" 25
scalar BaseNetwork.ap.umac "#received ift[100]" 25
scalar BaseNetwork.ap.umac "#received ift[101]" 25
scalar BaseNetwork.ap.umac "#total received" 50
scalar BaseNetwork.ap.umac "#total unique received" 25
scalar BaseNetwork.sta1.umac "#sent UDPData:0-25 on ift[100] at: " 9.828490257227
scalar BaseNetwork.sta1.umac "#sent UDPData:0-25 on ift[101] at: " 9.828490257227
scalar BaseNetwork.sta1.lmac[0].mac.hcf "#transmission UDPData:0-25 tried for " 0
scalar BaseNetwork.sta1.lmac[1].mac.hcf "#transmission UDPData:0-25 tried for " 0
scalar BaseNetwork.ap.umac "#received UDPData:0-25 on ift[101] at: " 9.828610590791
scalar BaseNetwork.ap.umac "#sent UDPData:0-25 on ift[100] at: " 9.828610590791
scalar BaseNetwork.ap.umac "#sent UDPData:0-25 on ift[101] at: " 9.828610590791
scalar BaseNetwork.ap.umac "#received UDPData:0-25 on ift[100] at: " 9.828698590791
scalar BaseNetwork.ap.lmac[1].mac.hcf "#transmission UDPData:0-25 tried for " 0
[...]
field count 0
field mean nan
field stddev nan
field min nan
field max nan
field sum 0
field sqrsum 0
attr interpolationmode none
attr recordingmode histogram
attr source "packetLength(demuxFlow(merge(packetPushedIn, packetPulledIn)))"
attr title "flow specific incoming packet lengths"
attr unit b
bin	-inf	0
bin	0	0
bin	1	0
scalar BaseNetwork.ap.ieee8021r.policy.streamRelay.merger droppedPackets:count 31
attr recordingmode count
attr source packetDropped
attr title "dropped packets, count"
attr unit pk
scalar BaseNetwork.ap.ieee8021r.policy.streamRelay.merger droppedPacketLengths:sum 259408
attr interpolationmode none
attr recordingmode sum
attr source packetLength(packetDropped)
attr title "dropped packet lengths, sum"
attr unit b
statistic BaseNetwork.ap.ieee8021r.policy.streamRelay.merger droppedPacketLengths:histogram
field count 31
field mean 8368
field stddev 0
field min 8368
field max 8368
field sum 259408
field sqrsum 2170726144
attr interpolationmode none
attr recordingmode histogram
attr source packetLength(packetDropped)
attr title "dropped packet lengths"
attr unit b
bin	-inf	0
bin	8367	0
bin	8368	31
bin	8369	0
scalar BaseNetwork.ap.ieee8021r.policy.streamRelay.merger flowDroppedPacketLengths:sum 0
attr interpolationmode none
attr recordingmode sum
attr source packetLength(demuxFlow(packetDropped))
attr title "flow specific dropped packet lengths, sum"
attr unit b
statistic BaseNetwork.ap.ieee8021r.policy.streamRelay.merger flowDroppedPacketLengths:histogram
field count 0
field mean nan
field stddev nan
field min nan
field max nan
field sum 0
field sqrsum 0
attr interpolationmode none
attr recordingmode histogram
attr source packetLength(demuxFlow(packetDropped))
attr title "flow specific dropped packet lengths"
attr unit b
bin	-inf	0
bin	0	0
bin	1	0
par BaseNetwork.ap.ieee8021r.policy.streamRelay.splitter typename "\"inet.protocolelement.redundancy.StreamSplitter\""
par BaseNetwork.ap.ieee8021r.policy.streamRelay.splitter displayStringTextFormat "\"processed %p pk (%l)\""
par BaseNetwork.ap.ieee8021r.policy.streamRelay.splitter mapping "{streamA: [\"streamA1\", \"streamA2\"]}"
attr mutable ""
par BaseNetwork.ap.ieee8021r.policy.streamRelay typename "\"inet.protocolelement.redundancy.StreamRelayLayer\""
par BaseNetwork.ap.ieee8021r.policy.streamRelay interfaceTableModule "\"BaseNetwork.ap.interfaceTable\""
par BaseNetwork.ap.ieee8021r.policy.streamCoder.upperLayerIn.channel typename "\"ned.IdealChannel\""
par BaseNetwork.ap.ieee8021r.policy.streamCoder.encoder.out.channel typename "\"ned.IdealChannel\""
par BaseNetwork.ap.ieee8021r.policy.streamCoder.lowerLayerIn.channel typename "\"ned.IdealChannel\""
par BaseNetwork.ap.ieee8021r.policy.streamCoder.decoder.out.channel typename "\"ned.IdealChannel\""
par BaseNetwork.ap.ieee8021r.policy.streamCoder.decoder typename "\"inet.protocolelement.redundancy.StreamDecoder\""
par BaseNetwork.ap.ieee8021r.policy.streamCoder.decoder displayStringTextFormat "\"processed %p pk (%l)\""
par BaseNetwork.ap.ieee8021r.policy.streamCoder.decoder interfaceTableModule "\"BaseNetwork.ap.interfaceTable\""
par BaseNetwork.ap.ieee8021r.policy.streamCoder.decoder mapping "[{destination: \"sta2\", interface: \"lmac0\", stream: \"streamA1\"}, {destination: \"sta2\", interface: \"lmac1\", stream: \"streamA2\"}]"
attr mutable ""
scalar BaseNetwork.ap.ieee8021r.policy.streamCoder.decoder outgoingPackets:count 62
attr recordingmode count
attr source "merge(packetPushedOut, packetPulledOut)"
attr title "outgoing packets, count"
attr unit pk
scalar BaseNetwork.ap.ieee8021r.policy.streamCoder.decoder outgoingPacketLengths:sum 518816
attr interpolationmode none
attr recordingmode sum
attr source "packetLength(merge(packetPushedOut, packetPulledOut))"
attr title "outgoing packet lengths, sum"
attr unit b
statistic BaseNetwork.ap.ieee8021r.policy.streamCoder.decoder outgoingPacketLengths:histogram
field count 62
field mean 8368
field stddev 0
field min 8368
field max 8368
field sum 518816
field sqrsum 4341452288
attr interpolationmode none
attr recordingmode histogram
attr source "packetLength(merge(packetPushedOut, packetPulledOut))"
attr title "outgoing packet lengths"
attr unit b
bin	-inf	0
bin	8367	0
bin	8368	62
bin	8369	0
scalar BaseNetwork.ap.ieee8021r.policy.streamCoder.decoder flowOutgoingPacketLengths:sum 0
attr interpolationmode none
attr recordingmode sum
attr source "packetLength(demuxFlow(merge(packetPushedOut, packetPulledOut)))"
attr title "flow specific outgoing packet lengths, sum"
attr unit b
statistic BaseNetwork.ap.ieee8021r.policy.streamCoder.decoder flowOutgoingPacketLengths:histogram
field count 0
field mean nan
field stddev nan
field min nan
field max nan
field sum 0
field sqrsum 0
attr interpolationmode none
attr recordingmode histogram
attr source "packetLength(demuxFlow(merge(packetPushedOut, packetPulledOut)))"
attr title "flow specific outgoing packet lengths"
attr unit b
bin	-inf	0
bin	0	0
bin	1	0
scalar BaseNetwork.ap.ieee8021r.policy.streamCoder.decoder incomingPackets:count 62
attr recordingmode count
attr source "merge(packetPushedIn, packetPulledIn)"
attr title "incoming packets, count"
attr unit pk
scalar BaseNetwork.ap.ieee8021r.policy.streamCoder.decoder incomingPacketLengths:sum 518816
attr interpolationmode none
attr recordingmode sum
attr source "packetLength(merge(packetPushedIn, packetPulledIn))"
attr title "incoming packet lengths, sum"
attr unit b
statistic BaseNetwork.ap.ieee8021r.policy.streamCoder.decoder incomingPacketLengths:histogram
field count 62
field mean 8368
field stddev 0
field min 8368
field max 8368
field sum 518816
field sqrsum 4341452288
attr interpolationmode none
attr recordingmode histogram
attr source "packetLength(merge(packetPushedIn, packetPulledIn))"
attr title "incoming packet lengths"
attr unit b
bin	-inf	0
bin	8367	0
bin	8368	62
bin	8369	0
scalar BaseNetwork.ap.ieee8021r.policy.streamCoder.decoder flowIncomingPacketLengths:sum 0
attr interpolationmode none
attr recordingmode sum
attr source "packetLength(demuxFlow(merge(packetPushedIn, packetPulledIn)))"
attr title "flow specific incoming packet lengths, sum"
attr unit b
statistic BaseNetwork.ap.ieee8021r.policy.streamCoder.decoder flowIncomingPacketLengths:histogram
field count 0
field mean nan
field stddev nan
field min nan
field max nan
field sum 0
field sqrsum 0
attr interpolationmode none
attr recordingmode histogram
attr source "packetLength(demuxFlow(merge(packetPushedIn, packetPulledIn)))"
attr title "flow specific incoming packet lengths"
attr unit b
bin	-inf	0
bin	0	0
bin	1	0
par BaseNetwork.ap.ieee8021r.policy.streamCoder.encoder typename "\"inet.protocolelement.redundancy.StreamEncoder\""
par BaseNetwork.ap.ieee8021r.policy.streamCoder.encoder displayStringTextFormat "\"processed %p pk (%l)\""
par BaseNetwork.ap.ieee8021r.policy.streamCoder.encoder mapping []
attr mutable ""
scalar BaseNetwork.ap.ieee8021r.policy.streamCoder.encoder outgoingPackets:count 62
attr recordingmode count
attr source "merge(packetPushedOut, packetPulledOut)"
attr title "outgoing packets, count"
attr unit pk
scalar BaseNetwork.ap.ieee8021r.policy.streamCoder.encoder outgoingPacketLengths:sum 518816
attr interpolationmode none
attr recordingmode sum
attr source "packetLength(merge(packetPushedOut, packetPulledOut))"
attr title "outgoing packet lengths, sum"
attr unit b
statistic BaseNetwork.ap.ieee8021r.policy.streamCoder.encoder outgoingPacketLengths:histogram
field count 62
field mean 8368
field stddev 0
field min 8368
field max 8368
field sum 518816
field sqrsum 4341452288
attr interpolationmode none
attr recordingmode histogram
attr source "packetLength(merge(packetPushedOut, packetPulledOut))"
attr title "outgoing packet lengths"
attr unit b
bin	-inf	0
bin	8367	0
bin	8368	62
bin	8369	0
scalar BaseNetwork.ap.ieee8021r.policy.streamCoder.encoder flowOutgoingPacketLengths:sum 0
attr interpolationmode none
attr recordingmode sum
attr source "packetLength(demuxFlow(merge(packetPushedOut, packetPulledOut)))"
attr title "flow specific outgoing packet lengths, sum"
attr unit b
statistic BaseNetwork.ap.ieee8021r.policy.streamCoder.encoder flowOutgoingPacketLengths:histogram
field count 0
field mean nan
field stddev nan
field min nan
field max nan
field sum 0
field sqrsum 0
attr interpolationmode none
attr recordingmode histogram
attr source "packetLength(demuxFlow(merge(packetPushedOut, packetPulledOut)))"
attr title "flow specific outgoing packet lengths"
attr unit b
bin	-inf	0
bin	0	0
bin	1	0
scalar BaseNetwork.ap.ieee8021r.policy.streamCoder.encoder incomingPackets:count 62
attr recordingmode count
attr source "merge(packetPushedIn, packetPulledIn)"
attr title "incoming packets, count"
attr unit pk
scalar BaseNetwork.ap.ieee8021r.policy.streamCoder.encoder incomingPacketLengths:sum 518816
attr interpolationmode none
attr recordingmode sum
attr source "packetLength(merge(packetPushedIn, packetPulledIn))"
attr title "incoming packet lengths, sum"
attr unit b
statistic BaseNetwork.ap.ieee8021r.policy.streamCoder.encoder incomingPacketLengths:histogram
field count 62
field mean 8368
field stddev 0
field min 8368
field max 8368
field sum 518816
field sqrsum 4341452288
attr interpolationmode none
attr recordingmode histogram
attr source "packetLength(merge(packetPushedIn, packetPulledIn))"
attr title "incoming packet lengths"
attr unit b
bin	-inf	0
bin	8367	0
bin	8368	62
bin	8369	0
scalar BaseNetwork.ap.ieee8021r.policy.streamCoder.encoder flowIncomingPacketLengths:sum 0
attr interpolationmode none
attr recordingmode sum
attr source "packetLength(demuxFlow(merge(packetPushedIn, packetPulledIn)))"
attr title "flow specific incoming packet lengths, sum"
attr unit b
statistic BaseNetwork.ap.ieee8021r.policy.streamCoder.encoder flowIncomingPacketLengths:histogram
field count 0
field mean nan
field stddev nan
field min nan
field max nan
field sum 0
field sqrsum 0
attr interpolationmode none
attr recordingmode histogram
attr source "packetLength(demuxFlow(merge(packetPushedIn, packetPulledIn)))"
attr title "flow specific incoming packet lengths"
attr unit b
bin	-inf	0
bin	0	0
bin	1	0
par BaseNetwork.ap.ieee8021r.policy.streamCoder typename "\"inet.protocolelement.redundancy.StreamCoderLayer\""
par BaseNetwork.ap.ieee8021r.policy.streamCoder interfaceTableModule "\"BaseNetwork.ap.interfaceTable\""
par BaseNetwork.ap.ieee8021r.policy typename "\"inet.linklayer.ieee8021q.StreamPolicyLayer\""
par BaseNetwork.ap.ieee8021r.policy interfaceTableModule "\"BaseNetwork.ap.interfaceTable\""
par BaseNetwork.ap.ieee8021r.protocol.upperLayerIn.channel typename "\"ned.IdealChannel\""
par BaseNetwork.ap.ieee8021r.protocol.rTagHeaderInserter.out.channel typename "\"ned.IdealChannel\""
par BaseNetwork.ap.ieee8021r.protocol.lowerLayerIn.channel typename "\"ned.IdealChannel\""
par BaseNetwork.ap.ieee8021r.protocol.rTagHeaderChecker.out.channel typename "\"ned.IdealChannel\""
par BaseNetwork.ap.ieee8021r.protocol.rTagHeaderInserter typename "\"inet.linklayer.ieee8021r.Ieee8021rTagEpdHeaderInserter\""
par BaseNetwork.ap.ieee8021r.protocol.rTagHeaderInserter displayStringTextFormat "\"processed %p pk (%l)\""
par BaseNetwork.ap.ieee8021r.protocol.rTagHeaderInserter nextProtocol "\"ieee80211be\""
scalar BaseNetwork.ap.ieee8021r.protocol.rTagHeaderInserter outgoingPackets:count 62
attr recordingmode count
attr source "merge(packetPushedOut, packetPulledOut)"
attr title "outgoing packets, count"
attr unit pk
scalar BaseNetwork.ap.ieee8021r.protocol.rTagHeaderInserter outgoingPacketLengths:sum 521792
attr interpolationmode none
attr recordingmode sum
attr source "packetLength(merge(packetPushedOut, packetPulledOut))"
attr title "outgoing packet lengths, sum"
attr unit b
statistic BaseNetwork.ap.ieee8021r.protocol.rTagHeaderInserter outgoingPacketLengths:histogram
field count 62
field mean 8416
field stddev 0
field min 8416
field max 8416
field sum 521792
field sqrsum 4391401472
attr interpolationmode none
attr recordingmode histogram
attr source "packetLength(merge(packetPushedOut, packetPulledOut))"
attr title "outgoing packet lengths"
attr unit b
bin	-inf	0
bin	8415	0
bin	8416	62
bin	8417	0
scalar BaseNetwork.ap.ieee8021r.protocol.rTagHeaderInserter flowOutgoingPacketLengths:sum 0
attr interpolationmode none
attr recordingmode sum
attr source "packetLength(demuxFlow(merge(packetPushedOut, packetPulledOut)))"
attr title "flow specific outgoing packet lengths, sum"
attr unit b
statistic BaseNetwork.ap.ieee8021r.protocol.rTagHeaderInserter flowOutgoingPacketLengths:histogram
field count 0
field mean nan
field stddev nan
field min nan
field max nan
field sum 0
field sqrsum 0
attr interpolationmode none
attr recordingmode histogram
attr source "packetLength(demuxFlow(merge(packetPushedOut, packetPulledOut)))"
attr title "flow specific outgoing packet lengths"
attr unit b
bin	-inf	0
bin	0	0
bin	1	0
scalar BaseNetwork.ap.ieee8021r.protocol.rTagHeaderInserter incomingPackets:count 62
attr recordingmode count
attr source "merge(packetPushedIn, packetPulledIn)"
attr title "incoming packets, count"
attr unit pk
scalar BaseNetwork.ap.ieee8021r.protocol.rTagHeaderInserter incomingPacketLengths:sum 518816
attr interpolationmode none
attr recordingmode sum
attr source "packetLength(merge(packetPushedIn, packetPulledIn))"
attr title "incoming packet lengths, sum"
attr unit b
statistic BaseNetwork.ap.ieee8021r.protocol.rTagHeaderInserter incomingPacketLengths:histogram
field count 62
field mean 8368
field stddev 0
field min 8368
field max 8368
field sum 518816
field sqrsum 4341452288
attr interpolationmode none
attr recordingmode histogram
attr source "packetLength(merge(packetPushedIn, packetPulledIn))"
attr title "incoming packet lengths"
attr unit b
bin	-inf	0
bin	8367	0
bin	8368	62
bin	8369	0
scalar BaseNetwork.ap.ieee8021r.protocol.rTagHeaderInserter flowIncomingPacketLengths:sum 0
attr interpolationmode none
attr recordingmode sum
attr source "packetLength(demuxFlow(merge(packetPushedIn, packetPulledIn)))"
attr title "flow specific incoming packet lengths, sum"
attr unit b
statistic BaseNetwork.ap.ieee8021r.protocol.rTagHeaderInserter flowIncomingPacketLengths:histogram
field count 0
field mean nan
field stddev nan
field min nan
field max nan
field sum 0
field sqrsum 0
attr interpolationmode none
attr recordingmode histogram
attr source "packetLength(demuxFlow(merge(packetPushedIn, packetPulledIn)))"
attr title "flow specific incoming packet lengths"
attr unit b
bin	-inf	0
bin	0	0
bin	1	0
par BaseNetwork.ap.ieee8021r.protocol.rTagHeaderChecker typename "\"inet.linklayer.ieee8021r.Ieee8021rTagEpdHeaderChecker\""
par BaseNetwork.ap.ieee8021r.protocol.rTagHeaderChecker displayStringTextFormat "\"dropped %d/%p pk (%k/%l)\""
par BaseNetwork.ap.ieee8021r.protocol.rTagHeaderChecker backpressure false
scalar BaseNetwork.ap.ieee8021r.protocol.rTagHeaderChecker outgoingPackets:count 62
attr recordingmode count
attr source "merge(packetPushedOut, packetPulledOut)"
attr title "outgoing packets, count"
attr unit pk
scalar BaseNetwork.ap.ieee8021r.protocol.rTagHeaderChecker outgoingPacketLengths:sum 518816
attr interpolationmode none
attr recordingmode sum
attr source "packetLength(merge(packetPushedOut, packetPulledOut))"
attr title "outgoing packet lengths, sum"
attr unit b
statistic BaseNetwork.ap.ieee8021r.protocol.rTagHeaderChecker outgoingPacketLengths:histogram
field count 62
field mean 8368
field stddev 0
field min 8368
field max 8368
field sum 518816
field sqrsum 4341452288
attr interpolationmode none
attr recordingmode histogram
attr source "packetLength(merge(packetPushedOut, packetPulledOut))"
attr title "outgoing packet lengths"
attr unit b
bin	-inf	0
bin	8367	0
bin	8368	62
bin	8369	0
scalar BaseNetwork.ap.ieee8021r.protocol.rTagHeaderChecker flowOutgoingPacketLengths:sum 0
attr interpolationmode none
attr recordingmode sum
attr source "packetLength(demuxFlow(merge(packetPushedOut, packetPulledOut)))"
attr title "flow specific outgoing packet lengths, sum"
attr unit b
statistic BaseNetwork.ap.ieee8021r.protocol.rTagHeaderChecker flowOutgoingPacketLengths:histogram
field count 0
field mean nan
field stddev nan
field min nan
field max nan
field sum 0
field sqrsum 0
attr interpolationmode none
attr recordingmode histogram
attr source "packetLength(demuxFlow(merge(packetPushedOut, packetPulledOut)))"
attr title "flow specific outgoing packet lengths"
attr unit b
bin	-inf	0
bin	0	0
bin	1	0
scalar BaseNetwork.ap.ieee8021r.protocol.rTagHeaderChecker incomingPackets:count 62
attr recordingmode count
attr source "merge(packetPushedIn, packetPulledIn)"
attr title "incoming packets, count"
attr unit pk
scalar BaseNetwork.ap.ieee8021r.protocol.rTagHeaderChecker incomingPacketLengths:sum 521792
attr interpolationmode none
attr recordingmode sum
attr source "packetLength(merge(packetPushedIn, packetPulledIn))"
attr title "incoming packet lengths, sum"
attr unit b
statistic BaseNetwork.ap.ieee8021r.protocol.rTagHeaderChecker incomingPacketLengths:histogram
field count 62
field mean 8416
field stddev 0
field min 8416
field max 8416
field sum 521792
field sqrsum 4391401472
attr interpolationmode none
attr recordingmode histogram
attr source "packetLength(merge(packetPushedIn, packetPulledIn))"
attr title "incoming packet lengths"
attr unit b
bin	-inf	0
bin	8415	0
bin	8416	62
bin	8417	0
scalar BaseNetwork.ap.ieee8021r.protocol.rTagHeaderChecker flowIncomingPacketLengths:sum 0
attr interpolationmode none
attr recordingmode sum
attr source "packetLength(demuxFlow(merge(packetPushedIn, packetPulledIn)))"
attr title "flow specific incoming packet lengths, sum"
attr unit b
statistic BaseNetwork.ap.ieee8021r.protocol.rTagHeaderChecker flowIncomingPacketLengths:histogram
field count 0
field mean nan
field stddev nan
field min nan
field max nan
field sum 0
field sqrsum 0
attr interpolationmode none
attr recordingmode histogram
attr source "packetLength(demuxFlow(merge(packetPushedIn, packetPulledIn)))"
attr title "flow specific incoming packet lengths"
attr unit b
bin	-inf	0
bin	0	0
bin	1	0
scalar BaseNetwork.ap.ieee8021r.protocol.rTagHeaderChecker droppedPackets:count 0
attr recordingmode count
attr source packetDropped
attr title "dropped packets, count"
attr unit pk
scalar BaseNetwork.ap.ieee8021r.protocol.rTagHeaderChecker droppedPacketLengths:sum 0
attr interpolationmode none
attr recordingmode sum
attr source packetLength(packetDropped)
attr title "dropped packet lengths, sum"
attr unit b
statistic BaseNetwork.ap.ieee8021r.protocol.rTagHeaderChecker droppedPacketLengths:histogram
field count 0
field mean nan
field stddev nan
field min nan
field max nan
field sum 0
field sqrsum 0
attr interpolationmode none
attr recordingmode histogram
attr source packetLength(packetDropped)
attr title "dropped packet lengths"
attr unit b
bin	-inf	0
bin	0	0
bin	1	0
scalar BaseNetwork.ap.ieee8021r.protocol.rTagHeaderChecker flowDroppedPacketLengths:sum 0
attr interpolationmode none
attr recordingmode sum
attr source packetLength(demuxFlow(packetDropped))
attr title "flow specific dropped packet lengths, sum"
attr unit b
statistic BaseNetwork.ap.ieee8021r.protocol.rTagHeaderChecker flowDroppedPacketLengths:histogram
field count 0
field mean nan
field stddev nan
field min nan
field max nan
field sum 0
field sqrsum 0
attr interpolationmode none
attr recordingmode histogram
attr source packetLength(demuxFlow(packetDropped))
attr title "flow specific dropped packet lengths"
attr unit b
bin	-inf	0
bin	0	0
bin	1	0
par BaseNetwork.ap.ieee8021r.protocol typename "\"inet.linklayer.ieee8021r.Ieee8021rProtocol\""
par BaseNetwork.ap.ieee8021r typename "\"inet.linklayer.ieee8021r.Ieee8021rLayer\""
par BaseNetwork.ap.ieee8021r interfaceTableModule "\"BaseNetwork.ap.interfaceTable\""
par BaseNetwork.ap typename "\"frer_mlo.node.Ieee8021CbAccessPoint\""
par BaseNetwork.ap numWlanInterfaces 2
par BaseNetwork.ap hasStatus true
par BaseNetwork.ap fcsMode "\"computed\""
attr enum declared,computed
par BaseNetwork typename "\"frer_mlo.simulations.BaseNetwork\""

