version 3
run Mobility-1-20260407-11:37:07-23856
attr configname Mobility
attr datetime 20260407-11:37:07
attr datetimef 20260407-113707
attr experiment Mobility
attr inifile omnetpp.ini
attr iterationvars "$speed=9.0, $packetLength=1000, $bitrate=52"
attr iterationvarsd speed=9.0/packetLength=1000/bitrate=52
attr iterationvarsf speed=9.0,packetLength=1000,bitrate=52-
attr measurement "$speed=9.0, $packetLength=1000, $bitrate=52"
attr network MixedNetwork
attr processid 23856
attr repetition 0
attr replication #0
attr resultdir results
attr runnumber 1
attr seedset 1
itervar bitrate 52
itervar packetLength 1000
itervar speed 9.0
config image-path ../../inet4.5/images;../../mlo/images
config extends FRER
config network MixedNetwork
config MixedNetwork.networkSize 16
config *.sta*.mobility.typename RandomWaypointMobility
config *.slo*.mobility.typename RandomWaypointMobility
config *.sta*.mobility.initFromDisplayString false
config *.slo*.mobility.initFromDisplayString false
config *.**.mobility.initialX "uniform(150m, 450m)"
config *.**.mobility.initialY "uniform(100m, 400m)"
config *.**.mobility.initialZ 0m
config *.**.mobility.constraintAreaMinX 0m
config *.**.mobility.constraintAreaMinY 0m
config *.**.mobility.constraintAreaMinZ 0m
config *.**.mobility.constraintAreaMaxX 450m
config *.**.mobility.constraintAreaMaxY 450m
config *.**.mobility.constraintAreaMaxZ 0m
config *.**.speed 9.0mps
config *.sta1.app[0].startTime "uniform(1s, 2s)"
config *.sta1.app[0].sendInterval "exponential(1028 * 8 / 52 * 3.5us * 12)"
config *.slo_sender_sta[*].app[0].messageLength 1000B
config *.slo_sender_sta[*].app[0].startTime "uniform(1s, 2s)"
config *.slo_sender_sta[*].app[0].stopTime 11s
config *.slo_sender_sta[*].app[0].sendInterval "exponential(1028 * 8 / 52 * 3.5us * 12)"
config *.slo_receiver_sta[*].numApps 1
config *.slo_receiver_sta[*].app[0].typename UdpSink
config *.slo_receiver_sta[*].app[0].localPort 5001
config extends SLO
config description "Enables FRER over MLO"
config *.**.classifier.ipProtocolUpMap "\"\""
config *.**.classifier.udpPortUpMap "\"5000 BE\""
config *.**.classifier.tcpPortUpMap "\"\""
config *.**.ieee8021r.protocol.rTagHeaderInserter.nextProtocol "\"ieee80211be\""
config *.**.umac.forwardingTable "{streamA1: \"lmac0\", streamA2: \"lmac1\"}"
config *.**.ieee8021r.policy.streamIdentifier.identifier.mapping "[{stream: \"streamA\", packetFilter: expr(udp.destPort == 5000), sequenceNumbering: true}]"
config *.**.ieee8021r.policy.streamRelay.splitter.mapping "{streamA: [\"streamA1\", \"streamA2\"]}"
config *.**.ieee8021r.policy.streamCoder.decoder.mapping "[{stream: \"streamA1\", interface: \"lmac0\", destination: \"sta2\"}, {stream: \"streamA2\", interface: \"lmac1\", destination: \"sta2\"}]"
config *.**.ieee8021r.policy.streamRelay.merger.mapping "{streamA1: \"streamA\", streamA2: \"streamA\"}"
config *.**.ieee8021r.policy.streamRelay.merger.bufferSize 10000
config *.sta2.ieee8021r.policy.streamRelay.merger.mapping "{streamA1: \"\", streamA2: \"\"}"
config extends General
config description "Initiates UDP traffic over a single (default 2.4 GHz) interface"
config *.sta1.numApps 1
config *.sta1.app[0].typename UdpBasicApp
config *.sta1.app[0].destAddresses "\"sta2\""
config *.sta1.app[0].localPort 5000
config *.sta1.app[0].destPort 5000
config *.sta1.app[0].packetName "\"UDPData:0\""
config *.sta1.app[0].messageLength 1000B
config *.sta1.app[0].sendInterval "exponential(1028 * 8 / 52 * 3.5us)"
config *.sta1.app[0].startTime 1s
config *.sta1.app[0].stopTime 11s
config *.sta2.numApps 1
config *.sta2.app[0].typename UdpSink
config *.sta2.app[0].localPort 5000
config network BaseNetwork
config description "Default configuration for a small MLO-FRER example"
config sim-time-limit 15s
config record-eventlog false
config repeat 1
config **.vector-recording false
config seed-0-mt "0 + 123752"
config **.printPkDetail false
config **.hasStatus true
config **.crcMode "\"computed\""
config **.fcsMode "\"computed\""
config **.numMediumVisualizers 4
config **.displaySignals true
config *.visualizer.mediumVisualizer[0].nodeFilter "\"sta1\""
config *.visualizer.mediumVisualizer[0].signalColor "\"red\""
config *.visualizer.mediumVisualizer[1].nodeFilter "\"sta2\""
config *.visualizer.mediumVisualizer[1].signalColor "\"blue\""
config *.visualizer.mediumVisualizer[2].nodeFilter "\"ap\""
config *.visualizer.mediumVisualizer[2].interfaceFilter "\"wlan[0]\""
config *.visualizer.mediumVisualizer[2].signalColor "\"yellow\""
config *.visualizer.numDataLinkVisualizers 2
config *.visualizer.dataLinkVisualizer[*].displayLinks true
config *.visualizer.dataLinkVisualizer[*].activityLevel "\"peer\""
config *.visualizer.dataLinkVisualizer[0].nodeFilter "\"sta1 or ap\""
config *.visualizer.dataLinkVisualizer[0].lineColor "\"red\""
config *.visualizer.dataLinkVisualizer[0].labelColor "\"red\""
config *.visualizer.dataLinkVisualizer[1].nodeFilter "\"ap or sta2\""
config *.visualizer.dataLinkVisualizer[1].lineColor "\"darkblue\""
config *.visualizer.dataLinkVisualizer[1].labelColor "\"darkblue\""
config *.visualizer.ieee80211Visualizer[0].displayAssociations true
config *.ap.lmac[0].mgmt.ssid "\"wlan2.4\""
config *.ap.lmac[1].mgmt.ssid "\"wlan5\""
config *.*sta*.lmac[0].agent.defaultSsid "\"wlan2.4\""
config *.*sta*.lmac[1].agent.defaultSsid "\"wlan5\""
config *.radioMedium.pathLoss.typename LogNormalShadowing
config *.radioMedium.pathLoss.sigma 2
config **.arp.typename GlobalArp
config *.**.numWlanInterfaces 2
config *.**.lmac[*].protocol "\"ieee80211be\""
config *.**.lmac[*].radio.antenna.numAntennas 2
config *.**.lmac[0].radio.bandwidth 20MHz
config *.**.lmac[1].radio.bandwidth 20MHz
config *.**.lmac[*].radio.receiver.modulation "\"QAM-64\""
config *.**.lmac[*].**.pendingQueue.packetCapacity 100000
config *.**.lmac[0].radio.bandName "\"2.4 GHz\""
config *.**.lmac[1].radio.bandName "\"5 GHz (20 MHz)\""
config *.**.lmac[0].bitrate 52Mbps
config *.**.lmac[1].bitrate 130Mbps
config *.**.umac.defaultInterface "\"lmac0\""
config *.**.lmac[*].mac.hcf.isBlockAckSupported true
config **.hcf.originatorMacDataService.fragmentationPolicy.fragmentationThreshold 10000B
config **.hcf.originatorMacDataService.msduAggregationPolicy.aggregationLengthThreshold 10000
config *.**.mobility.initialX "uniform(270m, 330m)"
config *.**.mobility.initialY "uniform(270m, 330m)"
config *.**.mobility.initialZ 0m
config *.**.**.edcaf[*].recoveryProcedure.shortRetryLimit 3
config *.**.**.edcaf[*].recoveryProcedure.longRetryLimit 3
config *.radioMedium.backgroundNoise.power -110dBm

scalar MixedNetwork.slo_sender_sta[4].umac "#sent UDPData:5-0 on ift[100] at: " 1.033364116447
scalar MixedNetwork.slo_sender_sta[4].lmac[0].mac.hcf "#transmission UDPData:5-0 tried for " 0
scalar MixedNetwork.ap.umac "#received UDPData:5-0 on ift[100] at: " 1.033572495304
scalar MixedNetwork.ap.umac "#sent UDPData:5-0 on ift[100] at: " 1.033572495304
scalar MixedNetwork.ap.lmac[0].mac.hcf "#transmission UDPData:5-0 tried for " 0
scalar MixedNetwork.slo_receiver_sta[4].umac "#received UDPData:5-0 on ift[100] at: " 1.033892918507
scalar MixedNetwork.slo_sender_sta[4].umac "#sent UDPData:5-1 on ift[100] at: " 1.03745716006
scalar MixedNetwork.slo_sender_sta[4].lmac[0].mac.hcf "#transmission UDPData:5-1 tried for " 0
scalar MixedNetwork.ap.umac "#received UDPData:5-1 on ift[100] at: " 1.037665538959
scalar MixedNetwork.ap.umac "#sent UDPData:5-1 on ift[100] at: " 1.037665538959
scalar MixedNetwork.ap.lmac[0].mac.hcf "#transmission UDPData:5-1 tried for " 0
scalar MixedNetwork.slo_receiver_sta[4].umac "#received UDPData:5-1 on ift[100] at: " 1.03801296208
scalar MixedNetwork.slo_sender_sta[4].umac "#sent UDPData:5-2 on ift[100] at: " 1.049481012541
scalar MixedNetwork.slo_sender_sta[4].lmac[0].mac.hcf "#transmission UDPData:5-2 tried for " 0
scalar MixedNetwork.ap.umac "#received UDPData:5-2 on ift[100] at: " 1.049689391565
scalar MixedNetwork.ap.umac "#sent UDPData:5-2 on ift[100] at: " 1.049689391565
scalar MixedNetwork.ap.lmac[0].mac.hcf "#transmission UDPData:5-2 tried for " 0
scalar MixedNetwork.slo_receiver_sta[4].umac "#received UDPData:5-2 on ift[100] at: " 1.050081814447
scalar MixedNetwork.slo_sender_sta[5].umac "#sent UDPData:6-0 on ift[101] at: " 1.054061680334
scalar MixedNetwork.slo_sender_sta[5].lmac[1].mac.hcf "#transmission UDPData:6-0 tried for " 0
scalar MixedNetwork.ap.umac "#received UDPData:6-0 on ift[101] at: " 1.054182241618
scalar MixedNetwork.ap.umac "#sent UDPData:6-0 on ift[101] at: " 1.054182241618
scalar MixedNetwork.ap.lmac[1].mac.hcf "#transmission UDPData:6-0 tried for " 0
scalar MixedNetwork.slo_receiver_sta[5].umac "#received UDPData:6-0 on ift[101] at: " 1.054522637159
scalar MixedNetwork.slo_sender_sta[4].umac "#sent UDPData:5-3 on ift[100] at: " 1.055356358072
scalar MixedNetwork.slo_sender_sta[4].lmac[0].mac.hcf "#transmission UDPData:5-3 tried for " 0
scalar MixedNetwork.ap.umac "#received UDPData:5-3 on ift[100] at: " 1.055564737157
scalar MixedNetwork.ap.umac "#sent UDPData:5-3 on ift[100] at: " 1.055564737157
scalar MixedNetwork.ap.lmac[0].mac.hcf "#transmission UDPData:5-3 tried for " 0
scalar MixedNetwork.slo_receiver_sta[4].umac "#received UDPData:5-3 on ift[100] at: " 1.055939159923
scalar MixedNetwork.slo_sender_sta[4].umac "#sent UDPData:5-4 on ift[100] at: " 1.06014625035
scalar MixedNetwork.slo_sender_sta[4].lmac[0].mac.hcf "#transmission UDPData:5-4 tried for " 0
scalar MixedNetwork.ap.umac "#received UDPData:5-4 on ift[100] at: " 1.060354629485
scalar MixedNetwork.ap.umac "#sent UDPData:5-4 on ift[100] at: " 1.060354629485
scalar MixedNetwork.ap.lmac[0].mac.hcf "#transmission UDPData:5-4 tried for " 0
scalar MixedNetwork.slo_sender_sta[5].umac "#sent UDPData:6-1 on ift[101] at: " 1.060727151954
scalar MixedNetwork.slo_sender_sta[5].lmac[1].mac.hcf "#transmission UDPData:6-1 tried for " 0
scalar MixedNetwork.slo_receiver_sta[4].umac "#received UDPData:5-4 on ift[100] at: " 1.060747052155
scalar MixedNetwork.ap.umac "#received UDPData:6-1 on ift[101] at: " 1.060847713321
scalar MixedNetwork.ap.umac "#sent UDPData:6-1 on ift[101] at: " 1.060847713321
scalar MixedNetwork.slo_sender_sta[4].umac "#sent UDPData:5-5 on ift[100] at: " 1.061021883278
scalar MixedNetwork.slo_sender_sta[4].lmac[0].mac.hcf "#transmission UDPData:5-5 tried for " 0
scalar MixedNetwork.ap.lmac[1].mac.hcf "#transmission UDPData:6-1 tried for " 0
scalar MixedNetwork.slo_receiver_sta[5].umac "#received UDPData:6-1 on ift[101] at: " 1.061143108737
scalar MixedNetwork.ap.umac "#received UDPData:5-5 on ift[100] at: " 1.061230262422
scalar MixedNetwork.ap.umac "#sent UDPData:5-5 on ift[100] at: " 1.061230262422
scalar MixedNetwork.ap.lmac[0].mac.hcf "#transmission UDPData:5-5 tried for " 0
scalar MixedNetwork.slo_receiver_sta[4].umac "#received UDPData:5-5 on ift[100] at: " 1.061658685074
scalar MixedNetwork.slo_sender_sta[4].umac "#sent UDPData:5-6 on ift[100] at: " 1.070767355705
scalar MixedNetwork.slo_sender_sta[4].lmac[0].mac.hcf "#transmission UDPData:5-6 tried for " 0
scalar MixedNetwork.ap.umac "#received UDPData:5-6 on ift[100] at: " 1.070975734951
scalar MixedNetwork.ap.umac "#sent UDPData:5-6 on ift[100] at: " 1.070975734951
scalar MixedNetwork.ap.lmac[0].mac.hcf "#transmission UDPData:5-6 tried for " 0
scalar MixedNetwork.slo_receiver_sta[4].umac "#received UDPData:5-6 on ift[100] at: " 1.071296157413
scalar MixedNetwork.slo_sender_sta[5].umac "#sent UDPData:6-2 on ift[101] at: " 1.071458830681
scalar MixedNetwork.slo_sender_sta[5].lmac[1].mac.hcf "#transmission UDPData:6-2 tried for " 0
scalar MixedNetwork.ap.umac "#received UDPData:6-2 on ift[101] at: " 1.071579392182
scalar MixedNetwork.ap.umac "#sent UDPData:6-2 on ift[101] at: " 1.071579392182
scalar MixedNetwork.ap.lmac[1].mac.hcf "#transmission UDPData:6-2 tried for " 0
scalar MixedNetwork.slo_receiver_sta[5].umac "#received UDPData:6-2 on ift[101] at: " 1.071919787395
scalar MixedNetwork.slo_sender_sta[5].umac "#sent UDPData:6-3 on ift[101] at: " 1.084135434904
scalar MixedNetwork.slo_sender_sta[5].lmac[1].mac.hcf "#transmission UDPData:6-3 tried for " 0
scalar MixedNetwork.ap.umac "#received UDPData:6-3 on ift[101] at: " 1.084255996563
scalar MixedNetwork.ap.umac "#sent UDPData:6-3 on ift[101] at: " 1.084255996563
scalar MixedNetwork.ap.lmac[1].mac.hcf "#transmission UDPData:6-3 tried for " 0
scalar MixedNetwork.slo_receiver_sta[5].umac "#received UDPData:6-3 on ift[101] at: " 1.084542391537
scalar MixedNetwork.slo_sender_sta[4].umac "#sent UDPData:5-7 on ift[100] at: " 1.08784116799
scalar MixedNetwork.slo_sender_sta[4].lmac[0].mac.hcf "#transmission UDPData:5-7 tried for " 0
scalar MixedNetwork.ap.umac "#received UDPData:5-7 on ift[100] at: " 1.088049547415
scalar MixedNetwork.ap.umac "#sent UDPData:5-7 on ift[100] at: " 1.088049547415
scalar MixedNetwork.ap.lmac[0].mac.hcf "#transmission UDPData:5-7 tried for " 0
scalar MixedNetwork.slo_receiver_sta[4].umac "#received UDPData:5-7 on ift[100] at: " 1.088360969539
scalar MixedNetwork.slo_sender_sta[5].umac "#sent UDPData:6-4 on ift[101] at: " 1.091745932614
scalar MixedNetwork.slo_sender_sta[5].lmac[1].mac.hcf "#transmission UDPData:6-4 tried for " 0
scalar MixedNetwork.ap.umac "#received UDPData:6-4 on ift[101] at: " 1.091866494368
scalar MixedNetwork.ap.umac "#sent UDPData:6-4 on ift[101] at: " 1.091866494368
scalar MixedNetwork.ap.lmac[1].mac.hcf "#transmission UDPData:6-4 tried for " 0
scalar MixedNetwork.slo_receiver_sta[5].umac "#received UDPData:6-4 on ift[101] at: " 1.092206889198
scalar MixedNetwork.slo_sender_sta[4].umac "#sent UDPData:5-8 on ift[100] at: " 1.095302963064
scalar MixedNetwork.slo_sender_sta[4].lmac[0].mac.hcf "#transmission UDPData:5-8 tried for " 0
scalar MixedNetwork.slo_sender_sta[5].umac "#sent UDPData:6-5 on ift[101] at: " 1.095414154316
scalar MixedNetwork.slo_sender_sta[5].lmac[1].mac.hcf "#transmission UDPData:6-5 tried for " 0
scalar MixedNetwork.ap.umac "#received UDPData:5-8 on ift[100] at: " 1.095511342567
scalar MixedNetwork.ap.umac "#sent UDPData:5-8 on ift[100] at: " 1.095511342567
scalar MixedNetwork.ap.umac "#received UDPData:6-5 on ift[101] at: " 1.095534716116
scalar MixedNetwork.ap.umac "#sent UDPData:6-5 on ift[101] at: " 1.095534716116
scalar MixedNetwork.ap.lmac[0].mac.hcf "#transmission UDPData:5-8 tried for " 0
scalar MixedNetwork.ap.lmac[1].mac.hcf "#transmission UDPData:6-5 tried for " 0
scalar MixedNetwork.slo_receiver_sta[5].umac "#received UDPData:6-5 on ift[101] at: " 1.095803110878
scalar MixedNetwork.slo_receiver_sta[4].umac "#received UDPData:5-8 on ift[100] at: " 1.095876764542
scalar MixedNetwork.slo_sender_sta[5].umac "#sent UDPData:6-6 on ift[101] at: " 1.097627278099
scalar MixedNetwork.slo_sender_sta[5].lmac[1].mac.hcf "#transmission UDPData:6-6 tried for " 0
scalar MixedNetwork.ap.umac "#received UDPData:6-6 on ift[101] at: " 1.097747839926
scalar MixedNetwork.ap.umac "#sent UDPData:6-6 on ift[101] at: " 1.097747839926
scalar MixedNetwork.ap.lmac[1].mac.hcf "#transmission UDPData:6-6 tried for " 0
scalar MixedNetwork.slo_receiver_sta[5].umac "#received UDPData:6-6 on ift[101] at: " 1.098043234646
scalar MixedNetwork.slo_sender_sta[4].umac "#sent UDPData:5-9 on ift[100] at: " 1.101650454753
scalar MixedNetwork.slo_sender_sta[4].lmac[0].mac.hcf "#transmission UDPData:5-9 tried for " 0
scalar MixedNetwork.ap.umac "#received UDPData:5-9 on ift[100] at: " 1.101858834322
scalar MixedNetwork.ap.umac "#sent UDPData:5-9 on ift[100] at: " 1.101858834322
scalar MixedNetwork.ap.lmac[0].mac.hcf "#transmission UDPData:5-9 tried for " 0
scalar MixedNetwork.slo_receiver_sta[4].umac "#received UDPData:5-9 on ift[100] at: " 1.10229625617
scalar MixedNetwork.slo_sender_sta[5].umac "#sent UDPData:6-7 on ift[101] at: " 1.104626705029
scalar MixedNetwork.slo_sender_sta[5].lmac[1].mac.hcf "#transmission UDPData:6-7 tried for " 0
scalar MixedNetwork.ap.umac "#received UDPData:6-7 on ift[101] at: " 1.104747266944
scalar MixedNetwork.ap.umac "#sent UDPData:6-7 on ift[101] at: " 1.104747266944
scalar MixedNetwork.ap.lmac[1].mac.hcf "#transmission UDPData:6-7 tried for " 0
scalar MixedNetwork.slo_receiver_sta[5].umac "#received UDPData:6-7 on ift[101] at: " 1.105096661531
scalar MixedNetwork.slo_sender_sta[4].umac "#sent UDPData:5-10 on ift[100] at: " 1.107124299336
scalar MixedNetwork.slo_sender_sta[4].lmac[0].mac.hcf "#transmission UDPData:5-10 tried for " 0
scalar MixedNetwork.ap.umac "#received UDPData:5-10 on ift[100] at: " 1.107332678963
scalar MixedNetwork.ap.umac "#sent UDPData:5-10 on ift[100] at: " 1.107332678963
scalar MixedNetwork.slo_sender_sta[5].umac "#sent UDPData:6-8 on ift[101] at: " 1.107381757974
scalar MixedNetwork.slo_sender_sta[5].lmac[1].mac.hcf "#transmission UDPData:6-8 tried for " 0
scalar MixedNetwork.ap.lmac[0].mac.hcf "#transmission UDPData:5-10 tried for " 0
scalar MixedNetwork.ap.umac "#received UDPData:6-8 on ift[101] at: " 1.107502319923
scalar MixedNetwork.ap.umac "#sent UDPData:6-8 on ift[101] at: " 1.107502319923
scalar MixedNetwork.slo_receiver_sta[4].umac "#received UDPData:5-10 on ift[100] at: " 1.107662100705
scalar MixedNetwork.ap.lmac[1].mac.hcf "#transmission UDPData:6-8 tried for " 0
scalar MixedNetwork.slo_receiver_sta[5].umac "#received UDPData:6-8 on ift[101] at: " 1.107797714459
scalar MixedNetwork.slo_sender_sta[4].umac "#sent UDPData:5-11 on ift[100] at: " 1.112678040952
scalar MixedNetwork.slo_sender_sta[4].lmac[0].mac.hcf "#transmission UDPData:5-11 tried for " 0
scalar MixedNetwork.ap.umac "#received UDPData:5-11 on ift[100] at: " 1.112886420637
scalar MixedNetwork.ap.umac "#sent UDPData:5-11 on ift[100] at: " 1.112886420637
scalar MixedNetwork.ap.lmac[0].mac.hcf "#transmission UDPData:5-11 tried for " 0
scalar MixedNetwork.slo_receiver_sta[4].umac "#received UDPData:5-11 on ift[100] at: " 1.113242842269
scalar MixedNetwork.slo_sender_sta[5].umac "#sent UDPData:6-9 on ift[101] at: " 1.11720705356
scalar MixedNetwork.slo_sender_sta[5].lmac[1].mac.hcf "#transmission UDPData:6-9 tried for " 0
scalar MixedNetwork.ap.umac "#received UDPData:6-9 on ift[101] at: " 1.117327615632
scalar MixedNetwork.ap.umac "#sent UDPData:6-9 on ift[101] at: " 1.117327615632
scalar MixedNetwork.ap.lmac[1].mac.hcf "#transmission UDPData:6-9 tried for " 0
scalar MixedNetwork.slo_receiver_sta[5].umac "#received UDPData:6-9 on ift[101] at: " 1.117632009983
scalar MixedNetwork.slo_sender_sta[4].umac "#sent UDPData:5-12 on ift[100] at: " 1.11908314135
scalar MixedNetwork.slo_sender_sta[4].lmac[0].mac.hcf "#transmission UDPData:5-12 tried for " 0
scalar MixedNetwork.ap.umac "#received UDPData:5-12 on ift[100] at: " 1.119291521103
scalar MixedNetwork.ap.umac "#sent UDPData:5-12 on ift[100] at: " 1.119291521103
scalar MixedNetwork.ap.lmac[0].mac.hcf "#transmission UDPData:5-12 tried for " 0
scalar MixedNetwork.slo_receiver_sta[4].umac "#received UDPData:5-12 on ift[100] at: " 1.119629942609
scalar MixedNetwork.slo_sender_sta[5].umac "#sent UDPData:6-10 on ift[101] at: " 1.124180611849
scalar MixedNetwork.slo_sender_sta[5].lmac[1].mac.hcf "#transmission UDPData:6-10 tried for " 0
scalar MixedNetwork.ap.umac "#received UDPData:6-10 on ift[101] at: " 1.124301174009
scalar MixedNetwork.ap.umac "#sent UDPData:6-10 on ift[101] at: " 1.124301174009
scalar MixedNetwork.ap.lmac[1].mac.hcf "#transmission UDPData:6-10 tried for " 0
scalar MixedNetwork.slo_receiver_sta[5].umac "#received UDPData:6-10 on ift[101] at: " 1.124569568229
scalar MixedNetwork.slo_sender_sta[4].umac "#sent UDPData:5-13 on ift[100] at: " 1.127676157583
scalar MixedNetwork.slo_sender_sta[4].lmac[0].mac.hcf "#transmission UDPData:5-13 tried for " 0
scalar MixedNetwork.ap.umac "#received UDPData:5-13 on ift[100] at: " 1.127884537426
scalar MixedNetwork.ap.umac "#sent UDPData:5-13 on ift[100] at: " 1.127884537426
scalar MixedNetwork.ap.lmac[0].mac.hcf "#transmission UDPData:5-13 tried for " 0
scalar MixedNetwork.slo_receiver_sta[4].umac "#received UDPData:5-13 on ift[100] at: " 1.128240958762
scalar MixedNetwork.slo_sender_sta[5].umac "#sent UDPData:6-11 on ift[101] at: " 1.128948854358
scalar MixedNetwork.slo_sender_sta[5].lmac[1].mac.hcf "#transmission UDPData:6-11 tried for " 0
scalar MixedNetwork.ap.umac "#received UDPData:6-11 on ift[101] at: " 1.129069416578
scalar MixedNetwork.ap.umac "#sent UDPData:6-11 on ift[101] at: " 1.129069416578
scalar MixedNetwork.ap.lmac[1].mac.hcf "#transmission UDPData:6-11 tried for " 0
scalar MixedNetwork.slo_sender_sta[5].umac "#sent UDPData:6-12 on ift[101] at: " 1.129356737551
scalar MixedNetwork.slo_receiver_sta[5].umac "#received UDPData:6-11 on ift[101] at: " 1.129391810708
scalar MixedNetwork.slo_sender_sta[5].lmac[1].mac.hcf "#transmission UDPData:6-12 tried for " 0
scalar MixedNetwork.ap.umac "#received UDPData:6-12 on ift[101] at: " 1.129624867497
scalar MixedNetwork.ap.umac "#sent UDPData:6-12 on ift[101] at: " 1.129624867497
scalar MixedNetwork.ap.lmac[1].mac.hcf "#transmission UDPData:6-12 tried for " 0
scalar MixedNetwork.slo_receiver_sta[5].umac "#received UDPData:6-12 on ift[101] at: " 1.129902261617
scalar MixedNetwork.slo_sender_sta[5].umac "#sent UDPData:6-13 on ift[101] at: " 1.130936084084
scalar MixedNetwork.slo_sender_sta[5].lmac[1].mac.hcf "#transmission UDPData:6-13 tried for " 0
scalar MixedNetwork.ap.umac "#received UDPData:6-13 on ift[101] at: " 1.131056646329
scalar MixedNetwork.ap.umac "#sent UDPData:6-13 on ift[101] at: " 1.131056646329
scalar MixedNetwork.ap.lmac[1].mac.hcf "#transmission UDPData:6-13 tried for " 0
scalar MixedNetwork.slo_receiver_sta[5].umac "#received UDPData:6-13 on ift[101] at: " 1.131406040421
scalar MixedNetwork.slo_sender_sta[5].umac "#sent UDPData:6-14 on ift[101] at: " 1.132736049901
scalar MixedNetwork.slo_sender_sta[5].lmac[1].mac.hcf "#transmission UDPData:6-14 tried for " 0
scalar MixedNetwork.ap.umac "#received UDPData:6-14 on ift[101] at: " 1.132856612168
scalar MixedNetwork.ap.umac "#sent UDPData:6-14 on ift[101] at: " 1.132856612168
scalar MixedNetwork.ap.lmac[1].mac.hcf "#transmission UDPData:6-14 tried for " 0
scalar MixedNetwork.slo_receiver_sta[5].umac "#received UDPData:6-14 on ift[101] at: " 1.133179006226
scalar MixedNetwork.slo_sender_sta[5].umac "#sent UDPData:6-15 on ift[101] at: " 1.13360876312
scalar MixedNetwork.slo_sender_sta[5].lmac[1].mac.hcf "#transmission UDPData:6-15 tried for " 0
scalar MixedNetwork.ap.umac "#received UDPData:6-15 on ift[101] at: " 1.133729325398
scalar MixedNetwork.ap.umac "#sent UDPData:6-15 on ift[101] at: " 1.133729325398
scalar MixedNetwork.ap.lmac[1].mac.hcf "#transmission UDPData:6-15 tried for " 0
scalar MixedNetwork.slo_receiver_sta[5].umac "#received UDPData:6-15 on ift[101] at: " 1.13406971944
scalar MixedNetwork.slo_sender_sta[6].umac "#sent UDPData:7-0 on ift[100] at: " 1.137920451816
scalar MixedNetwork.slo_sender_sta[6].lmac[0].mac.hcf "#transmission UDPData:7-0 tried for " 0
scalar MixedNetwork.ap.umac "#received UDPData:7-0 on ift[100] at: " 1.138128815632
scalar MixedNetwork.ap.umac "#sent UDPData:7-0 on ift[100] at: " 1.138128815632
scalar MixedNetwork.ap.lmac[0].mac.hcf "#transmission UDPData:7-0 tried for " 0
scalar MixedNetwork.slo_receiver_sta[6].umac "#received UDPData:7-0 on ift[100] at: " 1.138457941635
scalar MixedNetwork.slo_sender_sta[4].umac "#sent UDPData:5-14 on ift[100] at: " 1.140891848021
scalar MixedNetwork.slo_sender_sta[4].lmac[0].mac.hcf "#transmission UDPData:5-14 tried for " 0
scalar MixedNetwork.slo_sender_sta[4].umac "#sent UDPData:5-15 on ift[100] at: " 1.140991925857
scalar MixedNetwork.ap.umac "#received UDPData:5-14 on ift[100] at: " 1.141100228004
scalar MixedNetwork.ap.umac "#sent UDPData:5-14 on ift[100] at: " 1.141100228004
scalar MixedNetwork.slo_sender_sta[4].lmac[0].mac.hcf "#transmission UDPData:5-15 tried for " 0
scalar MixedNetwork.ap.umac "#received UDPData:5-15 on ift[100] at: " 1.141492987977
scalar MixedNetwork.ap.umac "#sent UDPData:5-15 on ift[100] at: " 1.141492987977
scalar MixedNetwork.ap.lmac[0].mac.hcf "#transmission UDPData:5-14 tried for " 0
scalar MixedNetwork.slo_receiver_sta[4].umac "#received UDPData:5-14 on ift[100] at: " 1.141840409045
scalar MixedNetwork.slo_sender_sta[4].umac "#sent UDPData:5-16 on ift[100] at: " 1.142086950543
scalar MixedNetwork.slo_sender_sta[4].lmac[0].mac.hcf "#transmission UDPData:5-16 tried for " 0
scalar MixedNetwork.ap.umac "#received UDPData:5-16 on ift[100] at: " 1.14249019527
scalar MixedNetwork.ap.umac "#sent UDPData:5-16 on ift[100] at: " 1.14249019527
scalar MixedNetwork.ap.lmac[0].mac.hcf "#transmission UDPData:5-15 tried for " 0
scalar MixedNetwork.slo_receiver_sta[4].umac "#received UDPData:5-15 on ift[100] at: " 1.142855616318
scalar MixedNetwork.ap.lmac[0].mac.hcf "#transmission UDPData:5-16 tried for " 0
scalar MixedNetwork.slo_receiver_sta[4].umac "#received UDPData:5-16 on ift[100] at: " 1.143567616304
scalar MixedNetwork.slo_sender_sta[4].umac "#sent UDPData:5-17 on ift[100] at: " 1.145375065641
scalar MixedNetwork.slo_sender_sta[4].lmac[0].mac.hcf "#transmission UDPData:5-17 tried for " 0
scalar MixedNetwork.ap.umac "#received UDPData:5-17 on ift[100] at: " 1.145583445672
scalar MixedNetwork.ap.umac "#sent UDPData:5-17 on ift[100] at: " 1.145583445672
scalar MixedNetwork.ap.lmac[0].mac.hcf "#transmission UDPData:5-17 tried for " 0
scalar MixedNetwork.slo_receiver_sta[4].umac "#received UDPData:5-17 on ift[100] at: " 1.145975866659
scalar MixedNetwork.slo_sender_sta[5].umac "#sent UDPData:6-16 on ift[101] at: " 1.146091821233
scalar MixedNetwork.slo_sender_sta[5].lmac[1].mac.hcf "#transmission UDPData:6-16 tried for " 0
scalar MixedNetwork.ap.umac "#received UDPData:6-16 on ift[101] at: " 1.146212383668
scalar MixedNetwork.ap.umac "#sent UDPData:6-16 on ift[101] at: " 1.146212383668
scalar MixedNetwork.ap.lmac[1].mac.hcf "#transmission UDPData:6-16 tried for " 0
scalar MixedNetwork.slo_receiver_sta[5].umac "#received UDPData:6-16 on ift[101] at: " 1.146534777475
scalar MixedNetwork.slo_sender_sta[5].umac "#sent UDPData:6-17 on ift[101] at: " 1.148340333527
scalar MixedNetwork.slo_sender_sta[5].lmac[1].mac.hcf "#transmission UDPData:6-17 tried for " 0
scalar MixedNetwork.ap.umac "#received UDPData:6-17 on ift[101] at: " 1.14846089599
scalar MixedNetwork.ap.umac "#sent UDPData:6-17 on ift[101] at: " 1.14846089599
scalar MixedNetwork.ap.lmac[1].mac.hcf "#transmission UDPData:6-17 tried for " 0
scalar MixedNetwork.slo_receiver_sta[5].umac "#received UDPData:6-17 on ift[101] at: " 1.148756289756
scalar MixedNetwork.slo_sender_sta[6].umac "#sent UDPData:7-1 on ift[100] at: " 1.149609096531
scalar MixedNetwork.slo_sender_sta[6].lmac[0].mac.hcf "#transmission UDPData:7-1 tried for " 0
scalar MixedNetwork.ap.umac "#received UDPData:7-1 on ift[100] at: " 1.149817460059
scalar MixedNetwork.ap.umac "#sent UDPData:7-1 on ift[100] at: " 1.149817460059
scalar MixedNetwork.ap.lmac[0].mac.hcf "#transmission UDPData:7-1 tried for " 0
scalar MixedNetwork.slo_receiver_sta[6].umac "#received UDPData:7-1 on ift[100] at: " 1.150155586305
scalar MixedNetwork.slo_sender_sta[5].umac "#sent UDPData:6-18 on ift[101] at: " 1.151833058026
scalar MixedNetwork.slo_sender_sta[5].lmac[1].mac.hcf "#transmission UDPData:6-18 tried for " 0
scalar MixedNetwork.ap.umac "#received UDPData:6-18 on ift[101] at: " 1.151953620533
scalar MixedNetwork.ap.umac "#sent UDPData:6-18 on ift[101] at: " 1.151953620533
scalar MixedNetwork.ap.lmac[1].mac.hcf "#transmission UDPData:6-18 tried for " 0
scalar MixedNetwork.slo_receiver_sta[5].umac "#received UDPData:6-18 on ift[101] at: " 1.152303014232
scalar MixedNetwork.slo_sender_sta[5].umac "#sent UDPData:6-19 on ift[101] at: " 1.153390011135
scalar MixedNetwork.slo_sender_sta[5].lmac[1].mac.hcf "#transmission UDPData:6-19 tried for " 0
scalar MixedNetwork.ap.umac "#received UDPData:6-19 on ift[101] at: " 1.153510573662
scalar MixedNetwork.ap.umac "#sent UDPData:6-19 on ift[101] at: " 1.153510573662
scalar MixedNetwork.ap.lmac[1].mac.hcf "#transmission UDPData:6-19 tried for " 0
scalar MixedNetwork.slo_receiver_sta[5].umac "#received UDPData:6-19 on ift[101] at: " 1.153769967334
scalar MixedNetwork.slo_sender_sta[5].umac "#sent UDPData:6-20 on ift[101] at: " 1.153809463358
scalar MixedNetwork.slo_sender_sta[6].umac "#sent UDPData:7-2 on ift[100] at: " 1.153875051797
scalar MixedNetwork.slo_sender_sta[6].lmac[0].mac.hcf "#transmission UDPData:7-2 tried for " 0
scalar MixedNetwork.slo_sender_sta[5].lmac[1].mac.hcf "#transmission UDPData:6-20 tried for " 0
scalar MixedNetwork.ap.umac "#received UDPData:6-20 on ift[101] at: " 1.154048023542
scalar MixedNetwork.ap.umac "#sent UDPData:6-20 on ift[101] at: " 1.154048023542
scalar MixedNetwork.ap.umac "#received UDPData:7-2 on ift[100] at: " 1.15408341522
scalar MixedNetwork.ap.umac "#sent UDPData:7-2 on ift[100] at: " 1.15408341522
scalar MixedNetwork.ap.lmac[1].mac.hcf "#transmission UDPData:6-20 tried for " 0
scalar MixedNetwork.slo_sender_sta[4].umac "#sent UDPData:5-18 on ift[100] at: " 1.154182632528
scalar MixedNetwork.slo_sender_sta[4].lmac[0].mac.hcf "#transmission UDPData:5-18 tried for " 0
scalar MixedNetwork.slo_receiver_sta[5].umac "#received UDPData:6-20 on ift[101] at: " 1.154298417204
scalar MixedNetwork.slo_sender_sta[6].umac "#sent UDPData:7-3 on ift[100] at: " 1.154354600464
scalar MixedNetwork.ap.umac "#received UDPData:5-18 on ift[100] at: " 1.154395175467
scalar MixedNetwork.ap.umac "#sent UDPData:5-18 on ift[100] at: " 1.154395175467
scalar MixedNetwork.ap.lmac[0].mac.hcf "#transmission UDPData:7-2 tried for " 0
scalar MixedNetwork.slo_receiver_sta[6].umac "#received UDPData:7-2 on ift[100] at: " 1.154724301808
scalar MixedNetwork.ap.lmac[0].mac.hcf "#transmission UDPData:5-18 tried for " 0
scalar MixedNetwork.slo_receiver_sta[4].umac "#received UDPData:5-18 on ift[100] at: " 1.155337596269
scalar MixedNetwork.slo_sender_sta[6].lmac[0].mac.hcf "#transmission UDPData:7-3 tried for " 0
scalar MixedNetwork.ap.umac "#received UDPData:7-3 on ift[100] at: " 1.155712200669
scalar MixedNetwork.ap.umac "#sent UDPData:7-3 on ift[100] at: " 1.155712200669
scalar MixedNetwork.ap.lmac[0].mac.hcf "#transmission UDPData:7-3 tried for " 0
scalar MixedNetwork.slo_receiver_sta[6].umac "#received UDPData:7-3 on ift[100] at: " 1.15615832704
scalar MixedNetwork.slo_sender_sta[5].umac "#sent UDPData:6-21 on ift[101] at: " 1.15763327868
scalar MixedNetwork.slo_sender_sta[5].lmac[1].mac.hcf "#transmission UDPData:6-21 tried for " 0
scalar MixedNetwork.ap.umac "#received UDPData:6-21 on ift[101] at: " 1.15775384126
scalar MixedNetwork.ap.umac "#sent UDPData:6-21 on ift[101] at: " 1.15775384126
scalar MixedNetwork.ap.lmac[1].mac.hcf "#transmission UDPData:6-21 tried for " 0
scalar MixedNetwork.slo_receiver_sta[5].umac "#received UDPData:6-21 on ift[101] at: " 1.158058234851
scalar MixedNetwork.slo_sender_sta[4].umac "#sent UDPData:5-19 on ift[100] at: " 1.158605223756
scalar MixedNetwork.slo_sender_sta[4].lmac[0].mac.hcf "#transmission UDPData:5-19 tried for " 0
scalar MixedNetwork.ap.umac "#received UDPData:5-19 on ift[100] at: " 1.158813603927
scalar MixedNetwork.ap.umac "#sent UDPData:5-19 on ift[100] at: " 1.158813603927
scalar MixedNetwork.ap.lmac[0].mac.hcf "#transmission UDPData:5-19 tried for " 0
scalar MixedNetwork.slo_receiver_sta[4].umac "#received UDPData:5-19 on ift[100] at: " 1.159161024654
scalar MixedNetwork.slo_sender_sta[6].umac "#sent UDPData:7-4 on ift[100] at: " 1.161598616531
scalar MixedNetwork.slo_sender_sta[6].lmac[0].mac.hcf "#transmission UDPData:7-4 tried for " 0
scalar MixedNetwork.ap.umac "#received UDPData:7-4 on ift[100] at: " 1.161806979763
scalar MixedNetwork.ap.umac "#sent UDPData:7-4 on ift[100] at: " 1.161806979763
scalar MixedNetwork.ap.lmac[0].mac.hcf "#transmission UDPData:7-4 tried for " 0
scalar MixedNetwork.slo_receiver_sta[6].umac "#received UDPData:7-4 on ift[100] at: " 1.162118106258
scalar MixedNetwork.slo_sender_sta[5].umac "#sent UDPData:6-22 on ift[101] at: " 1.16797398685
scalar MixedNetwork.slo_sender_sta[5].lmac[1].mac.hcf "#transmission UDPData:6-22 tried for " 0
scalar MixedNetwork.ap.umac "#received UDPData:6-22 on ift[101] at: " 1.16809454956
scalar MixedNetwork.ap.umac "#sent UDPData:6-22 on ift[101] at: " 1.16809454956
scalar MixedNetwork.slo_sender_sta[4].umac "#sent UDPData:5-20 on ift[100] at: " 1.168201600723
scalar MixedNetwork.slo_sender_sta[4].lmac[0].mac.hcf "#transmission UDPData:5-20 tried for " 0
scalar MixedNetwork.ap.lmac[1].mac.hcf "#transmission UDPData:6-22 tried for " 0
scalar MixedNetwork.ap.umac "#received UDPData:5-20 on ift[100] at: " 1.168409980996
scalar MixedNetwork.ap.umac "#sent UDPData:5-20 on ift[100] at: " 1.168409980996
scalar MixedNetwork.slo_receiver_sta[5].umac "#received UDPData:6-22 on ift[101] at: " 1.168452942956
scalar MixedNetwork.ap.lmac[0].mac.hcf "#transmission UDPData:5-20 tried for " 0
scalar MixedNetwork.slo_receiver_sta[4].umac "#received UDPData:5-20 on ift[100] at: " 1.168784401533
scalar MixedNetwork.slo_sender_sta[6].umac "#sent UDPData:7-5 on ift[100] at: " 1.172192793169
scalar MixedNetwork.slo_sender_sta[6].lmac[0].mac.hcf "#transmission UDPData:7-5 tried for " 0
scalar MixedNetwork.ap.umac "#received UDPData:7-5 on ift[100] at: " 1.172401156141
scalar MixedNetwork.ap.umac "#sent UDPData:7-5 on ift[100] at: " 1.172401156141
scalar MixedNetwork.ap.lmac[0].mac.hcf "#transmission UDPData:7-5 tried for " 0
scalar MixedNetwork.slo_receiver_sta[6].umac "#received UDPData:7-5 on ift[100] at: " 1.172802282859
scalar MixedNetwork.slo_sender_sta[5].umac "#sent UDPData:6-23 on ift[101] at: " 1.173369853097
scalar MixedNetwork.slo_sender_sta[5].lmac[1].mac.hcf "#transmission UDPData:6-23 tried for " 0
scalar MixedNetwork.ap.umac "#received UDPData:6-23 on ift[101] at: " 1.173490415875
scalar MixedNetwork.ap.umac "#sent UDPData:6-23 on ift[101] at: " 1.173490415875
scalar MixedNetwork.ap.lmac[1].mac.hcf "#transmission UDPData:6-23 tried for " 0
scalar MixedNetwork.slo_receiver_sta[5].umac "#received UDPData:6-23 on ift[101] at: " 1.173812809171
scalar MixedNetwork.slo_sender_sta[6].umac "#sent UDPData:7-6 on ift[100] at: " 1.175004435163
scalar MixedNetwork.slo_sender_sta[6].lmac[0].mac.hcf "#transmission UDPData:7-6 tried for " 0
scalar MixedNetwork.ap.umac "#received UDPData:7-6 on ift[100] at: " 1.175212798065
scalar MixedNetwork.ap.umac "#sent UDPData:7-6 on ift[100] at: " 1.175212798065
scalar MixedNetwork.ap.lmac[0].mac.hcf "#transmission UDPData:7-6 tried for " 0
scalar MixedNetwork.slo_receiver_sta[6].umac "#received UDPData:7-6 on ift[100] at: " 1.175586924841
scalar MixedNetwork.slo_sender_sta[4].umac "#sent UDPData:5-21 on ift[100] at: " 1.175781255166
scalar MixedNetwork.slo_sender_sta[4].lmac[0].mac.hcf "#transmission UDPData:5-21 tried for " 0
scalar MixedNetwork.slo_sender_sta[6].umac "#sent UDPData:7-7 on ift[100] at: " 1.175836474046
scalar MixedNetwork.ap.umac "#received UDPData:5-21 on ift[100] at: " 1.17598963552
scalar MixedNetwork.ap.umac "#sent UDPData:5-21 on ift[100] at: " 1.17598963552
scalar MixedNetwork.slo_sender_sta[6].lmac[0].mac.hcf "#transmission UDPData:7-7 tried for " 0
scalar MixedNetwork.ap.umac "#received UDPData:7-7 on ift[100] at: " 1.176301361274
scalar MixedNetwork.ap.umac "#sent UDPData:7-7 on ift[100] at: " 1.176301361274
scalar MixedNetwork.ap.lmac[0].mac.hcf "#transmission UDPData:5-21 tried for " 0
scalar MixedNetwork.slo_receiver_sta[4].umac "#received UDPData:5-21 on ift[100] at: " 1.176711781655
scalar MixedNetwork.ap.lmac[0].mac.hcf "#transmission UDPData:7-7 tried for " 0
scalar MixedNetwork.slo_receiver_sta[6].umac "#received UDPData:7-7 on ift[100] at: " 1.177351488087
scalar MixedNetwork.slo_sender_sta[5].umac "#sent UDPData:6-24 on ift[101] at: " 1.178050567455
scalar MixedNetwork.slo_sender_sta[5].lmac[1].mac.hcf "#transmission UDPData:6-24 tried for " 0
scalar MixedNetwork.ap.umac "#received UDPData:6-24 on ift[101] at: " 1.178171130292
scalar MixedNetwork.ap.umac "#sent UDPData:6-24 on ift[101] at: " 1.178171130292
scalar MixedNetwork.ap.lmac[1].mac.hcf "#transmission UDPData:6-24 tried for " 0
scalar MixedNetwork.slo_receiver_sta[5].umac "#received UDPData:6-24 on ift[101] at: " 1.178448523501
scalar MixedNetwork.slo_sender_sta[5].umac "#sent UDPData:6-25 on ift[101] at: " 1.189410888708
scalar MixedNetwork.slo_sender_sta[5].lmac[1].mac.hcf "#transmission UDPData:6-25 tried for " 0
scalar MixedNetwork.ap.umac "#received UDPData:6-25 on ift[101] at: " 1.189531451689
scalar MixedNetwork.ap.umac "#sent UDPData:6-25 on ift[101] at: " 1.189531451689
scalar MixedNetwork.ap.lmac[1].mac.hcf "#transmission UDPData:6-25 tried for " 0
scalar MixedNetwork.slo_receiver_sta[5].umac "#received UDPData:6-25 on ift[101] at: " 1.189826844685
scalar MixedNetwork.slo_sender_sta[5].umac "#sent UDPData:6-26 on ift[101] at: " 1.191585462853
scalar MixedNetwork.slo_sender_sta[5].lmac[1].mac.hcf "#transmission UDPData:6-26 tried for " 0
scalar MixedNetwork.ap.umac "#received UDPData:6-26 on ift[101] at: " 1.191706025861
scalar MixedNetwork.ap.umac "#sent UDPData:6-26 on ift[101] at: " 1.191706025861
scalar MixedNetwork.ap.lmac[1].mac.hcf "#transmission UDPData:6-26 tried for " 0
scalar MixedNetwork.slo_receiver_sta[5].umac "#received UDPData:6-26 on ift[101] at: " 1.192019418816
scalar MixedNetwork.slo_sender_sta[4].umac "#sent UDPData:5-22 on ift[100] at: " 1.195143962718
scalar MixedNetwork.slo_sender_sta[4].lmac[0].mac.hcf "#transmission UDPData:5-22 tried for " 0
scalar MixedNetwork.ap.umac "#received UDPData:5-22 on ift[100] at: " 1.195352343278
scalar MixedNetwork.ap.umac "#sent UDPData:5-22 on ift[100] at: " 1.195352343278
scalar MixedNetwork.ap.lmac[0].mac.hcf "#transmission UDPData:5-22 tried for " 0
scalar MixedNetwork.slo_receiver_sta[4].umac "#received UDPData:5-22 on ift[100] at: " 1.195717763286
scalar MixedNetwork.slo_sender_sta[6].umac "#sent UDPData:7-8 on ift[100] at: " 1.196139582928
scalar MixedNetwork.slo_sender_sta[6].lmac[0].mac.hcf "#transmission UDPData:7-8 tried for " 0
scalar MixedNetwork.ap.umac "#received UDPData:7-8 on ift[100] at: " 1.196347945311
scalar MixedNetwork.ap.umac "#sent UDPData:7-8 on ift[100] at: " 1.196347945311
scalar MixedNetwork.ap.lmac[0].mac.hcf "#transmission UDPData:7-8 tried for " 0
scalar MixedNetwork.slo_receiver_sta[6].umac "#received UDPData:7-8 on ift[100] at: " 1.196704072529
scalar MixedNetwork.slo_sender_sta[4].umac "#sent UDPData:5-23 on ift[100] at: " 1.201890909638
scalar MixedNetwork.slo_sender_sta[4].lmac[0].mac.hcf "#transmission UDPData:5-23 tried for " 0
scalar MixedNetwork.ap.umac "#received UDPData:5-23 on ift[100] at: " 1.202099290271
scalar MixedNetwork.ap.umac "#sent UDPData:5-23 on ift[100] at: " 1.202099290271
scalar MixedNetwork.ap.lmac[0].mac.hcf "#transmission UDPData:5-23 tried for " 0
scalar MixedNetwork.slo_receiver_sta[4].umac "#received UDPData:5-23 on ift[100] at: " 1.202446710147
scalar MixedNetwork.slo_sender_sta[6].umac "#sent UDPData:7-9 on ift[100] at: " 1.202996917835
scalar MixedNetwork.slo_sender_sta[6].lmac[0].mac.hcf "#transmission UDPData:7-9 tried for " 0
scalar MixedNetwork.ap.umac "#received UDPData:7-9 on ift[100] at: " 1.203205280049
scalar MixedNetwork.ap.umac "#sent UDPData:7-9 on ift[100] at: " 1.203205280049
scalar MixedNetwork.ap.lmac[0].mac.hcf "#transmission UDPData:7-9 tried for " 0
scalar MixedNetwork.slo_receiver_sta[6].umac "#received UDPData:7-9 on ift[100] at: " 1.203615407412
scalar MixedNetwork.slo_sender_sta[6].umac "#sent UDPData:7-10 on ift[100] at: " 1.204774651428
scalar MixedNetwork.slo_sender_sta[6].lmac[0].mac.hcf "#transmission UDPData:7-10 tried for " 0
scalar MixedNetwork.ap.umac "#received UDPData:7-10 on ift[100] at: " 1.204983013598
scalar MixedNetwork.ap.umac "#sent UDPData:7-10 on ift[100] at: " 1.204983013598
scalar MixedNetwork.ap.lmac[0].mac.hcf "#transmission UDPData:7-10 tried for " 0
scalar MixedNetwork.slo_receiver_sta[6].umac "#received UDPData:7-10 on ift[100] at: " 1.205393140999
scalar MixedNetwork.slo_sender_sta[5].umac "#sent UDPData:6-27 on ift[101] at: " 1.205632184894
scalar MixedNetwork.slo_sender_sta[5].lmac[1].mac.hcf "#transmission UDPData:6-27 tried for " 0
scalar MixedNetwork.slo_sender_sta[4].umac "#sent UDPData:5-24 on ift[100] at: " 1.205739667364
scalar MixedNetwork.slo_sender_sta[4].lmac[0].mac.hcf "#transmission UDPData:5-24 tried for " 0
scalar MixedNetwork.ap.umac "#received UDPData:6-27 on ift[101] at: " 1.20575274808
scalar MixedNetwork.ap.umac "#sent UDPData:6-27 on ift[101] at: " 1.20575274808
scalar MixedNetwork.ap.umac "#received UDPData:5-24 on ift[100] at: " 1.205948048038
scalar MixedNetwork.ap.umac "#sent UDPData:5-24 on ift[100] at: " 1.205948048038
scalar MixedNetwork.ap.lmac[1].mac.hcf "#transmission UDPData:6-27 tried for " 0
scalar MixedNetwork.ap.lmac[0].mac.hcf "#transmission UDPData:5-24 tried for " 0
scalar MixedNetwork.slo_receiver_sta[5].umac "#received UDPData:6-27 on ift[101] at: " 1.206111140771
scalar MixedNetwork.slo_receiver_sta[4].umac "#received UDPData:5-24 on ift[100] at: " 1.206277467839
scalar MixedNetwork.slo_sender_sta[4].umac "#sent UDPData:5-25 on ift[100] at: " 1.20740792552
scalar MixedNetwork.slo_sender_sta[4].lmac[0].mac.hcf "#transmission UDPData:5-25 tried for " 0
scalar MixedNetwork.ap.umac "#received UDPData:5-25 on ift[100] at: " 1.207616306212
scalar MixedNetwork.ap.umac "#sent UDPData:5-25 on ift[100] at: " 1.207616306212
scalar MixedNetwork.ap.lmac[0].mac.hcf "#transmission UDPData:5-25 tried for " 0
scalar MixedNetwork.slo_receiver_sta[4].umac "#received UDPData:5-25 on ift[100] at: " 1.208008725979
scalar MixedNetwork.slo_sender_sta[6].umac "#sent UDPData:7-11 on ift[100] at: " 1.211335628621
scalar MixedNetwork.slo_sender_sta[6].lmac[0].mac.hcf "#transmission UDPData:7-11 tried for " 0
scalar MixedNetwork.ap.umac "#received UDPData:7-11 on ift[100] at: " 1.21154399063
scalar MixedNetwork.ap.umac "#sent UDPData:7-11 on ift[100] at: " 1.21154399063
scalar MixedNetwork.ap.lmac[0].mac.hcf "#transmission UDPData:7-11 tried for " 0
scalar MixedNetwork.slo_receiver_sta[6].umac "#received UDPData:7-11 on ift[100] at: " 1.211981118169
scalar MixedNetwork.slo_sender_sta[6].umac "#sent UDPData:7-12 on ift[100] at: " 1.214109440999
scalar MixedNetwork.slo_sender_sta[6].lmac[0].mac.hcf "#transmission UDPData:7-12 tried for " 0
scalar MixedNetwork.ap.umac "#received UDPData:7-12 on ift[100] at: " 1.21431780294
scalar MixedNetwork.ap.umac "#sent UDPData:7-12 on ift[100] at: " 1.21431780294
scalar MixedNetwork.ap.lmac[0].mac.hcf "#transmission UDPData:7-12 tried for " 0
scalar MixedNetwork.slo_receiver_sta[6].umac "#received UDPData:7-12 on ift[100] at: " 1.214754930537
scalar MixedNetwork.slo_sender_sta[6].umac "#sent UDPData:7-13 on ift[100] at: " 1.218232899358
scalar MixedNetwork.slo_sender_sta[6].lmac[0].mac.hcf "#transmission UDPData:7-13 tried for " 0
scalar MixedNetwork.slo_sender_sta[5].umac "#sent UDPData:6-28 on ift[101] at: " 1.218398667574
scalar MixedNetwork.slo_sender_sta[5].lmac[1].mac.hcf "#transmission UDPData:6-28 tried for " 0
scalar MixedNetwork.ap.umac "#received UDPData:7-13 on ift[100] at: " 1.218441261197
scalar MixedNetwork.ap.umac "#sent UDPData:7-13 on ift[100] at: " 1.218441261197
scalar MixedNetwork.ap.umac "#received UDPData:6-28 on ift[101] at: " 1.218519230921
scalar MixedNetwork.ap.umac "#sent UDPData:6-28 on ift[101] at: " 1.218519230921
scalar MixedNetwork.ap.lmac[0].mac.hcf "#transmission UDPData:7-13 tried for " 0
scalar MixedNetwork.ap.lmac[1].mac.hcf "#transmission UDPData:6-28 tried for " 0
scalar MixedNetwork.slo_receiver_sta[5].umac "#received UDPData:6-28 on ift[101] at: " 1.218742623376
scalar MixedNetwork.slo_receiver_sta[6].umac "#received UDPData:7-13 on ift[100] at: " 1.218761388879
scalar MixedNetwork.slo_sender_sta[6].umac "#sent UDPData:7-14 on ift[100] at: " 1.219359597354
scalar MixedNetwork.slo_sender_sta[6].lmac[0].mac.hcf "#transmission UDPData:7-14 tried for " 0
scalar MixedNetwork.ap.umac "#received UDPData:7-14 on ift[100] at: " 1.219567959166
scalar MixedNetwork.ap.umac "#sent UDPData:7-14 on ift[100] at: " 1.219567959166
scalar MixedNetwork.ap.lmac[0].mac.hcf "#transmission UDPData:7-14 tried for " 0
scalar MixedNetwork.slo_sender_sta[5].umac "#sent UDPData:6-29 on ift[101] at: " 1.219880125861
scalar MixedNetwork.slo_sender_sta[5].lmac[1].mac.hcf "#transmission UDPData:6-29 tried for " 0
scalar MixedNetwork.slo_receiver_sta[6].umac "#received UDPData:7-14 on ift[100] at: " 1.219969086873
scalar MixedNetwork.ap.umac "#received UDPData:6-29 on ift[101] at: " 1.220000689227
scalar MixedNetwork.ap.umac "#sent UDPData:6-29 on ift[101] at: " 1.220000689227
scalar MixedNetwork.ap.lmac[1].mac.hcf "#transmission UDPData:6-29 tried for " 0
scalar MixedNetwork.slo_receiver_sta[5].umac "#received UDPData:6-29 on ift[101] at: " 1.220332081652
scalar MixedNetwork.slo_sender_sta[4].umac "#sent UDPData:5-26 on ift[100] at: " 1.221873824531
scalar MixedNetwork.slo_sender_sta[4].lmac[0].mac.hcf "#transmission UDPData:5-26 tried for " 0
scalar MixedNetwork.ap.umac "#received UDPData:5-26 on ift[100] at: " 1.222082205378
scalar MixedNetwork.ap.umac "#sent UDPData:5-26 on ift[100] at: " 1.222082205378
scalar MixedNetwork.ap.lmac[0].mac.hcf "#transmission UDPData:5-26 tried for " 0
scalar MixedNetwork.slo_receiver_sta[4].umac "#received UDPData:5-26 on ift[100] at: " 1.222465624861
scalar MixedNetwork.slo_sender_sta[4].umac "#sent UDPData:5-27 on ift[100] at: " 1.224476999169
scalar MixedNetwork.slo_sender_sta[4].lmac[0].mac.hcf "#transmission UDPData:5-27 tried for " 0
scalar MixedNetwork.ap.umac "#received UDPData:5-27 on ift[100] at: " 1.224685380044
scalar MixedNetwork.ap.umac "#sent UDPData:5-27 on ift[100] at: " 1.224685380044
scalar MixedNetwork.ap.lmac[0].mac.hcf "#transmission UDPData:5-27 tried for " 0
scalar MixedNetwork.slo_receiver_sta[4].umac "#received UDPData:5-27 on ift[100] at: " 1.225095799475
scalar MixedNetwork.slo_sender_sta[4].umac "#sent UDPData:5-28 on ift[100] at: " 1.225642591845
scalar MixedNetwork.slo_sender_sta[4].lmac[0].mac.hcf "#transmission UDPData:5-28 tried for " 0
scalar MixedNetwork.ap.umac "#received UDPData:5-28 on ift[100] at: " 1.225850972733
scalar MixedNetwork.ap.umac "#sent UDPData:5-28 on ift[100] at: " 1.225850972733
scalar MixedNetwork.ap.lmac[0].mac.hcf "#transmission UDPData:5-28 tried for " 0
scalar MixedNetwork.slo_receiver_sta[4].umac "#received UDPData:5-28 on ift[100] at: " 1.226189392143
scalar MixedNetwork.slo_sender_sta[4].umac "#sent UDPData:5-29 on ift[100] at: " 1.227443238064
scalar MixedNetwork.slo_sender_sta[4].lmac[0].mac.hcf "#transmission UDPData:5-29 tried for " 0
scalar MixedNetwork.ap.umac "#received UDPData:5-29 on ift[100] at: " 1.227651618971
scalar MixedNetwork.ap.umac "#sent UDPData:5-29 on ift[100] at: " 1.227651618971
scalar MixedNetwork.ap.lmac[0].mac.hcf "#transmission UDPData:5-29 tried for " 0
scalar MixedNetwork.slo_receiver_sta[4].umac "#received UDPData:5-29 on ift[100] at: " 1.227990038346
scalar MixedNetwork.slo_sender_sta[6].umac "#sent UDPData:7-15 on ift[100] at: " 1.229994504349
scalar MixedNetwork.slo_sender_sta[6].lmac[0].mac.hcf "#transmission UDPData:7-15 tried for " 0
scalar MixedNetwork.ap.umac "#received UDPData:7-15 on ift[100] at: " 1.230202865899
scalar MixedNetwork.ap.umac "#sent UDPData:7-15 on ift[100] at: " 1.230202865899
scalar MixedNetwork.ap.lmac[0].mac.hcf "#transmission UDPData:7-15 tried for " 0
scalar MixedNetwork.slo_receiver_sta[6].umac "#received UDPData:7-15 on ift[100] at: " 1.23057699383
scalar MixedNetwork.slo_sender_sta[5].umac "#sent UDPData:6-30 on ift[101] at: " 1.233001761087
scalar MixedNetwork.slo_sender_sta[5].lmac[1].mac.hcf "#transmission UDPData:6-30 tried for " 0
scalar MixedNetwork.ap.umac "#received UDPData:6-30 on ift[101] at: " 1.233122324619
scalar MixedNetwork.ap.umac "#sent UDPData:6-30 on ift[101] at: " 1.233122324619
scalar MixedNetwork.ap.lmac[1].mac.hcf "#transmission UDPData:6-30 tried for " 0
scalar MixedNetwork.slo_receiver_sta[5].umac "#received UDPData:6-30 on ift[101] at: " 1.233462716799
scalar MixedNetwork.slo_sender_sta[6].umac "#sent UDPData:7-16 on ift[100] at: " 1.233803958801
scalar MixedNetwork.slo_sender_sta[6].lmac[0].mac.hcf "#transmission UDPData:7-16 tried for " 0
scalar MixedNetwork.ap.umac "#received UDPData:7-16 on ift[100] at: " 1.234012320258
scalar MixedNetwork.ap.umac "#sent UDPData:7-16 on ift[100] at: " 1.234012320258
scalar MixedNetwork.ap.lmac[0].mac.hcf "#transmission UDPData:7-16 tried for " 0
scalar MixedNetwork.slo_receiver_sta[6].umac "#received UDPData:7-16 on ift[100] at: " 1.234323448268
scalar MixedNetwork.slo_sender_sta[5].umac "#sent UDPData:6-31 on ift[101] at: " 1.235353551492
scalar MixedNetwork.slo_sender_sta[5].lmac[1].mac.hcf "#transmission UDPData:6-31 tried for " 0
scalar MixedNetwork.ap.umac "#received UDPData:6-31 on ift[101] at: " 1.235474115054
scalar MixedNetwork.ap.umac "#sent UDPData:6-31 on ift[101] at: " 1.235474115054
scalar MixedNetwork.ap.lmac[1].mac.hcf "#transmission UDPData:6-31 tried for " 0
scalar MixedNetwork.slo_receiver_sta[5].umac "#received UDPData:6-31 on ift[101] at: " 1.235733507192
scalar MixedNetwork.slo_sender_sta[6].umac "#sent UDPData:7-17 on ift[100] at: " 1.238127892775
scalar MixedNetwork.slo_sender_sta[6].lmac[0].mac.hcf "#transmission UDPData:7-17 tried for " 0
scalar MixedNetwork.ap.umac "#received UDPData:7-17 on ift[100] at: " 1.238336254126
scalar MixedNetwork.ap.umac "#sent UDPData:7-17 on ift[100] at: " 1.238336254126
scalar MixedNetwork.ap.lmac[0].mac.hcf "#transmission UDPData:7-17 tried for " 0
scalar MixedNetwork.slo_receiver_sta[6].umac "#received UDPData:7-17 on ift[100] at: " 1.238665382227
scalar MixedNetwork.slo_sender_sta[6].umac "#sent UDPData:7-18 on ift[100] at: " 1.24202800113
scalar MixedNetwork.slo_sender_sta[6].lmac[0].mac.hcf "#transmission UDPData:7-18 tried for " 0
scalar MixedNetwork.ap.umac "#received UDPData:7-18 on ift[100] at: " 1.242236362385
scalar MixedNetwork.ap.umac "#sent UDPData:7-18 on ift[100] at: " 1.242236362385
scalar MixedNetwork.ap.lmac[0].mac.hcf "#transmission UDPData:7-18 tried for " 0
scalar MixedNetwork.slo_receiver_sta[6].umac "#received UDPData:7-18 on ift[100] at: " 1.24262849057
scalar MixedNetwork.slo_sender_sta[4].umac "#sent UDPData:5-30 on ift[100] at: " 1.242978179572
scalar MixedNetwork.slo_sender_sta[4].lmac[0].mac.hcf "#transmission UDPData:5-30 tried for " 0
scalar MixedNetwork.ap.umac "#received UDPData:5-30 on ift[100] at: " 1.243186560647
scalar MixedNetwork.ap.umac "#sent UDPData:5-30 on ift[100] at: " 1.243186560647
scalar MixedNetwork.ap.lmac[0].mac.hcf "#transmission UDPData:5-30 tried for " 0
scalar MixedNetwork.slo_receiver_sta[4].umac "#received UDPData:5-30 on ift[100] at: " 1.243623979715
scalar MixedNetwork.slo_sender_sta[4].umac "#sent UDPData:5-31 on ift[100] at: " 1.245534524989
scalar MixedNetwork.slo_sender_sta[4].lmac[0].mac.hcf "#transmission UDPData:5-31 tried for " 0
scalar MixedNetwork.ap.umac "#received UDPData:5-31 on ift[100] at: " 1.245742906091
scalar MixedNetwork.ap.umac "#sent UDPData:5-31 on ift[100] at: " 1.245742906091
scalar MixedNetwork.ap.lmac[0].mac.hcf "#transmission UDPData:5-31 tried for " 0
scalar MixedNetwork.slo_receiver_sta[4].umac "#received UDPData:5-31 on ift[100] at: " 1.24614432511
scalar MixedNetwork.slo_sender_sta[4].umac "#sent UDPData:5-32 on ift[100] at: " 1.247176556586
scalar MixedNetwork.slo_sender_sta[4].lmac[0].mac.hcf "#transmission UDPData:5-32 tried for " 0
scalar MixedNetwork.ap.umac "#received UDPData:5-32 on ift[100] at: " 1.247384937706
scalar MixedNetwork.ap.umac "#sent UDPData:5-32 on ift[100] at: " 1.247384937706
scalar MixedNetwork.ap.lmac[0].mac.hcf "#transmission UDPData:5-32 tried for " 0
scalar MixedNetwork.slo_receiver_sta[4].umac "#received UDPData:5-32 on ift[100] at: " 1.247777356693
scalar MixedNetwork.slo_sender_sta[4].umac "#sent UDPData:5-33 on ift[100] at: " 1.248832740085
scalar MixedNetwork.slo_sender_sta[4].lmac[0].mac.hcf "#transmission UDPData:5-33 tried for " 0
scalar MixedNetwork.ap.umac "#received UDPData:5-33 on ift[100] at: " 1.249041121223
scalar MixedNetwork.ap.umac "#sent UDPData:5-33 on ift[100] at: " 1.249041121223
scalar MixedNetwork.ap.lmac[0].mac.hcf "#transmission UDPData:5-33 tried for " 0
scalar MixedNetwork.slo_receiver_sta[4].umac "#received UDPData:5-33 on ift[100] at: " 1.249469540177
scalar MixedNetwork.slo_sender_sta[6].umac "#sent UDPData:7-19 on ift[100] at: " 1.252022195585
scalar MixedNetwork.slo_sender_sta[6].lmac[0].mac.hcf "#transmission UDPData:7-19 tried for " 0
scalar MixedNetwork.ap.umac "#received UDPData:7-19 on ift[100] at: " 1.252230556595
scalar MixedNetwork.ap.umac "#sent UDPData:7-19 on ift[100] at: " 1.252230556595
scalar MixedNetwork.ap.lmac[0].mac.hcf "#transmission UDPData:7-19 tried for " 0
scalar MixedNetwork.slo_receiver_sta[6].umac "#received UDPData:7-19 on ift[100] at: " 1.252577684991
scalar MixedNetwork.slo_sender_sta[4].umac "#sent UDPData:5-34 on ift[100] at: " 1.252776053913
scalar MixedNetwork.slo_sender_sta[4].lmac[0].mac.hcf "#transmission UDPData:5-34 tried for " 0
scalar MixedNetwork.ap.umac "#received UDPData:5-34 on ift[100] at: " 1.252984435093
scalar MixedNetwork.ap.umac "#sent UDPData:5-34 on ift[100] at: " 1.252984435093
scalar MixedNetwork.ap.lmac[0].mac.hcf "#transmission UDPData:5-34 tried for " 0
scalar MixedNetwork.slo_receiver_sta[4].umac "#received UDPData:5-34 on ift[100] at: " 1.253340853971
scalar MixedNetwork.slo_sender_sta[4].umac "#sent UDPData:5-35 on ift[100] at: " 1.256329236709
scalar MixedNetwork.slo_sender_sta[4].lmac[0].mac.hcf "#transmission UDPData:5-35 tried for " 0
scalar MixedNetwork.ap.umac "#received UDPData:5-35 on ift[100] at: " 1.256537617928
scalar MixedNetwork.ap.umac "#sent UDPData:5-35 on ift[100] at: " 1.256537617928
scalar MixedNetwork.ap.lmac[0].mac.hcf "#transmission UDPData:5-35 tried for " 0
scalar MixedNetwork.slo_receiver_sta[4].umac "#received UDPData:5-35 on ift[100] at: " 1.256867036737
scalar MixedNetwork.slo_sender_sta[5].umac "#sent UDPData:6-32 on ift[101] at: " 1.258148497606
scalar MixedNetwork.slo_sender_sta[5].lmac[1].mac.hcf "#transmission UDPData:6-32 tried for " 0
scalar MixedNetwork.ap.umac "#received UDPData:6-32 on ift[101] at: " 1.258269061457
scalar MixedNetwork.ap.umac "#sent UDPData:6-32 on ift[101] at: " 1.258269061457
scalar MixedNetwork.ap.lmac[1].mac.hcf "#transmission UDPData:6-32 tried for " 0
scalar MixedNetwork.slo_receiver_sta[5].umac "#received UDPData:6-32 on ift[101] at: " 1.258600453169
scalar MixedNetwork.slo_sender_sta[6].umac "#sent UDPData:7-20 on ift[100] at: " 1.260410747813
scalar MixedNetwork.slo_sender_sta[6].lmac[0].mac.hcf "#transmission UDPData:7-20 tried for " 0
scalar MixedNetwork.ap.umac "#received UDPData:7-20 on ift[100] at: " 1.260619108617
scalar MixedNetwork.ap.umac "#sent UDPData:7-20 on ift[100] at: " 1.260619108617
scalar MixedNetwork.ap.lmac[0].mac.hcf "#transmission UDPData:7-20 tried for " 0
scalar MixedNetwork.slo_receiver_sta[6].umac "#received UDPData:7-20 on ift[100] at: " 1.261065237193
scalar MixedNetwork.slo_sender_sta[6].umac "#sent UDPData:7-21 on ift[100] at: " 1.261601638122
scalar MixedNetwork.slo_sender_sta[6].lmac[0].mac.hcf "#transmission UDPData:7-21 tried for " 0
scalar MixedNetwork.ap.umac "#received UDPData:7-21 on ift[100] at: " 1.261809998897
scalar MixedNetwork.ap.umac "#sent UDPData:7-21 on ift[100] at: " 1.261809998897
scalar MixedNetwork.ap.lmac[0].mac.hcf "#transmission UDPData:7-21 tried for " 0
scalar MixedNetwork.slo_receiver_sta[6].umac "#received UDPData:7-21 on ift[100] at: " 1.262148127495
scalar MixedNetwork.slo_sender_sta[6].umac "#sent UDPData:7-22 on ift[100] at: " 1.262936365962
scalar MixedNetwork.slo_sender_sta[6].lmac[0].mac.hcf "#transmission UDPData:7-22 tried for " 0
scalar MixedNetwork.ap.umac "#received UDPData:7-22 on ift[100] at: " 1.263144726704
scalar MixedNetwork.ap.umac "#sent UDPData:7-22 on ift[100] at: " 1.263144726704
scalar MixedNetwork.ap.lmac[0].mac.hcf "#transmission UDPData:7-22 tried for " 0
scalar MixedNetwork.slo_receiver_sta[6].umac "#received UDPData:7-22 on ift[100] at: " 1.263509855331
scalar MixedNetwork.slo_sender_sta[4].umac "#sent UDPData:5-36 on ift[100] at: " 1.264443563242
scalar MixedNetwork.slo_sender_sta[4].lmac[0].mac.hcf "#transmission UDPData:5-36 tried for " 0
scalar MixedNetwork.ap.umac "#received UDPData:5-36 on ift[100] at: " 1.264651944549
scalar MixedNetwork.ap.umac "#sent UDPData:5-36 on ift[100] at: " 1.264651944549
scalar MixedNetwork.ap.lmac[0].mac.hcf "#transmission UDPData:5-36 tried for " 0
scalar MixedNetwork.slo_receiver_sta[4].umac "#received UDPData:5-36 on ift[100] at: " 1.265080363197
scalar MixedNetwork.slo_sender_sta[5].umac "#sent UDPData:6-33 on ift[101] at: " 1.266113621702
scalar MixedNetwork.slo_sender_sta[5].lmac[1].mac.hcf "#transmission UDPData:6-33 tried for " 0
scalar MixedNetwork.ap.umac "#received UDPData:6-33 on ift[101] at: " 1.266234185655
scalar MixedNetwork.ap.umac "#sent UDPData:6-33 on ift[101] at: " 1.266234185655
scalar MixedNetwork.ap.lmac[1].mac.hcf "#transmission UDPData:6-33 tried for " 0
scalar MixedNetwork.slo_receiver_sta[5].umac "#received UDPData:6-33 on ift[101] at: " 1.266511577219
scalar MixedNetwork.slo_sender_sta[4].umac "#sent UDPData:5-37 on ift[100] at: " 1.271675629769
scalar MixedNetwork.slo_sender_sta[4].lmac[0].mac.hcf "#transmission UDPData:5-37 tried for " 0
scalar MixedNetwork.ap.umac "#received UDPData:5-37 on ift[100] at: " 1.271884011154
scalar MixedNetwork.ap.umac "#sent UDPData:5-37 on ift[100] at: " 1.271884011154
scalar MixedNetwork.ap.lmac[0].mac.hcf "#transmission UDPData:5-37 tried for " 0
scalar MixedNetwork.slo_receiver_sta[4].umac "#received UDPData:5-37 on ift[100] at: " 1.272222429663
scalar MixedNetwork.slo_sender_sta[4].umac "#sent UDPData:5-38 on ift[100] at: " 1.273639235242
scalar MixedNetwork.slo_sender_sta[4].lmac[0].mac.hcf "#transmission UDPData:5-38 tried for " 0
scalar MixedNetwork.ap.umac "#received UDPData:5-38 on ift[100] at: " 1.273847616649
scalar MixedNetwork.ap.umac "#sent UDPData:5-38 on ift[100] at: " 1.273847616649
scalar MixedNetwork.ap.lmac[0].mac.hcf "#transmission UDPData:5-38 tried for " 0
scalar MixedNetwork.slo_receiver_sta[4].umac "#received UDPData:5-38 on ift[100] at: " 1.274195035119
scalar MixedNetwork.slo_sender_sta[6].umac "#sent UDPData:7-23 on ift[100] at: " 1.274507812437
scalar MixedNetwork.slo_sender_sta[6].lmac[0].mac.hcf "#transmission UDPData:7-23 tried for " 0
scalar MixedNetwork.ap.umac "#received UDPData:7-23 on ift[100] at: " 1.274716172895
scalar MixedNetwork.ap.umac "#sent UDPData:7-23 on ift[100] at: " 1.274716172895
scalar MixedNetwork.ap.lmac[0].mac.hcf "#transmission UDPData:7-23 tried for " 0
scalar MixedNetwork.slo_receiver_sta[6].umac "#received UDPData:7-23 on ift[100] at: " 1.275072301768
scalar MixedNetwork.slo_sender_sta[5].umac "#sent UDPData:6-34 on ift[101] at: " 1.275803271297
scalar MixedNetwork.slo_sender_sta[5].lmac[1].mac.hcf "#transmission UDPData:6-34 tried for " 0
scalar MixedNetwork.ap.umac "#received UDPData:6-34 on ift[101] at: " 1.275923835373
scalar MixedNetwork.ap.umac "#sent UDPData:6-34 on ift[101] at: " 1.275923835373
scalar MixedNetwork.ap.lmac[1].mac.hcf "#transmission UDPData:6-34 tried for " 0
scalar MixedNetwork.slo_receiver_sta[5].umac "#received UDPData:6-34 on ift[101] at: " 1.276183226757
scalar MixedNetwork.slo_sender_sta[5].umac "#sent UDPData:6-35 on ift[101] at: " 1.277759017735
scalar MixedNetwork.slo_sender_sta[5].lmac[1].mac.hcf "#transmission UDPData:6-35 tried for " 0
scalar MixedNetwork.ap.umac "#received UDPData:6-35 on ift[101] at: " 1.277879581836
scalar MixedNetwork.ap.umac "#sent UDPData:6-35 on ift[101] at: " 1.277879581836
scalar MixedNetwork.ap.lmac[1].mac.hcf "#transmission UDPData:6-35 tried for " 0
scalar MixedNetwork.slo_receiver_sta[5].umac "#received UDPData:6-35 on ift[101] at: " 1.278219973182
scalar MixedNetwork.slo_sender_sta[6].umac "#sent UDPData:7-24 on ift[100] at: " 1.278404618831
scalar MixedNetwork.slo_sender_sta[6].lmac[0].mac.hcf "#transmission UDPData:7-24 tried for " 0
scalar MixedNetwork.ap.umac "#received UDPData:7-24 on ift[100] at: " 1.278612979193
scalar MixedNetwork.ap.umac "#sent UDPData:7-24 on ift[100] at: " 1.278612979193
scalar MixedNetwork.ap.lmac[0].mac.hcf "#transmission UDPData:7-24 tried for " 0
scalar MixedNetwork.slo_receiver_sta[6].umac "#received UDPData:7-24 on ift[100] at: " 1.278960108149
scalar MixedNetwork.slo_sender_sta[4].umac "#sent UDPData:5-39 on ift[100] at: " 1.279012589765
scalar MixedNetwork.slo_sender_sta[4].lmac[0].mac.hcf "#transmission UDPData:5-39 tried for " 0
scalar MixedNetwork.ap.umac "#received UDPData:5-39 on ift[100] at: " 1.27928979839
scalar MixedNetwork.ap.umac "#sent UDPData:5-39 on ift[100] at: " 1.27928979839
scalar MixedNetwork.ap.lmac[0].mac.hcf "#transmission UDPData:5-39 tried for " 0
scalar MixedNetwork.slo_receiver_sta[4].umac "#received UDPData:5-39 on ift[100] at: " 1.279619216754
scalar MixedNetwork.slo_sender_sta[4].umac "#sent UDPData:5-40 on ift[100] at: " 1.280722368914
scalar MixedNetwork.slo_sender_sta[4].lmac[0].mac.hcf "#transmission UDPData:5-40 tried for " 0
scalar MixedNetwork.slo_sender_sta[6].umac "#sent UDPData:7-25 on ift[100] at: " 1.280869971629
scalar MixedNetwork.ap.umac "#received UDPData:5-40 on ift[100] at: " 1.280930750397
scalar MixedNetwork.ap.umac "#sent UDPData:5-40 on ift[100] at: " 1.280930750397
scalar MixedNetwork.slo_sender_sta[6].lmac[0].mac.hcf "#transmission UDPData:7-25 tried for " 0
scalar MixedNetwork.slo_sender_sta[4].umac "#sent UDPData:5-41 on ift[100] at: " 1.281181703649
scalar MixedNetwork.ap.umac "#received UDPData:7-25 on ift[100] at: " 1.281260470994
scalar MixedNetwork.ap.umac "#sent UDPData:7-25 on ift[100] at: " 1.281260470994
scalar MixedNetwork.slo_sender_sta[4].lmac[0].mac.hcf "#transmission UDPData:5-41 tried for " 0
scalar MixedNetwork.ap.umac "#received UDPData:5-41 on ift[100] at: " 1.281635233974
scalar MixedNetwork.ap.umac "#sent UDPData:5-41 on ift[100] at: " 1.281635233974
scalar MixedNetwork.ap.lmac[0].mac.hcf "#transmission UDPData:5-40 tried for " 0
scalar MixedNetwork.slo_receiver_sta[4].umac "#received UDPData:5-40 on ift[100] at: " 1.281973652292
scalar MixedNetwork.ap.lmac[0].mac.hcf "#transmission UDPData:7-25 tried for " 0
scalar MixedNetwork.slo_receiver_sta[6].umac "#received UDPData:7-25 on ift[100] at: " 1.282631363008
scalar MixedNetwork.slo_sender_sta[6].umac "#sent UDPData:7-26 on ift[100] at: " 1.282726146946
scalar MixedNetwork.ap.lmac[0].mac.hcf "#transmission UDPData:5-41 tried for " 0
scalar MixedNetwork.slo_sender_sta[5].umac "#sent UDPData:6-36 on ift[101] at: " 1.283093794305
scalar MixedNetwork.slo_sender_sta[5].lmac[1].mac.hcf "#transmission UDPData:6-36 tried for " 0
scalar MixedNetwork.slo_sender_sta[6].umac "#sent UDPData:7-27 on ift[100] at: " 1.283208956804
scalar MixedNetwork.ap.umac "#received UDPData:6-36 on ift[101] at: " 1.283214358474
scalar MixedNetwork.ap.umac "#sent UDPData:6-36 on ift[101] at: " 1.283214358474
scalar MixedNetwork.slo_receiver_sta[4].umac "#received UDPData:5-41 on ift[100] at: " 1.283298652266
scalar MixedNetwork.ap.lmac[1].mac.hcf "#transmission UDPData:6-36 tried for " 0
scalar MixedNetwork.slo_sender_sta[6].lmac[0].mac.hcf "#transmission UDPData:7-26 tried for " 0
scalar MixedNetwork.slo_receiver_sta[5].umac "#received UDPData:6-36 on ift[101] at: " 1.283509749722
scalar MixedNetwork.ap.umac "#received UDPData:7-26 on ift[100] at: " 1.283646252313
scalar MixedNetwork.ap.umac "#sent UDPData:7-26 on ift[100] at: " 1.283646252313
scalar MixedNetwork.ap.lmac[0].mac.hcf "#transmission UDPData:7-26 tried for " 0
scalar MixedNetwork.slo_sender_sta[5].umac "#sent UDPData:6-37 on ift[101] at: " 1.284167953602
scalar MixedNetwork.slo_sender_sta[5].lmac[1].mac.hcf "#transmission UDPData:6-37 tried for " 0
scalar MixedNetwork.slo_receiver_sta[6].umac "#received UDPData:7-26 on ift[100] at: " 1.284277381382
scalar MixedNetwork.ap.umac "#received UDPData:6-37 on ift[101] at: " 1.284288517785
scalar MixedNetwork.ap.umac "#sent UDPData:6-37 on ift[101] at: " 1.284288517785
scalar MixedNetwork.ap.lmac[1].mac.hcf "#transmission UDPData:6-37 tried for " 0
scalar MixedNetwork.slo_sender_sta[6].lmac[0].mac.hcf "#transmission UDPData:7-27 tried for " 0
scalar MixedNetwork.slo_receiver_sta[5].umac "#received UDPData:6-37 on ift[101] at: " 1.284520909014
scalar MixedNetwork.ap.umac "#received UDPData:7-27 on ift[100] at: " 1.28467021013
scalar MixedNetwork.ap.umac "#sent UDPData:7-27 on ift[100] at: " 1.28467021013
scalar MixedNetwork.slo_sender_sta[5].umac "#sent UDPData:6-38 on ift[101] at: " 1.284718135505
scalar MixedNetwork.slo_sender_sta[5].lmac[1].mac.hcf "#transmission UDPData:6-38 tried for " 0
scalar MixedNetwork.ap.lmac[0].mac.hcf "#transmission UDPData:7-27 tried for " 0
scalar MixedNetwork.ap.umac "#received UDPData:6-38 on ift[101] at: " 1.284838699695
scalar MixedNetwork.ap.umac "#sent UDPData:6-38 on ift[101] at: " 1.284838699695
scalar MixedNetwork.slo_receiver_sta[6].umac "#received UDPData:7-27 on ift[100] at: " 1.284981339214
scalar MixedNetwork.ap.lmac[1].mac.hcf "#transmission UDPData:6-38 tried for " 0
scalar MixedNetwork.slo_receiver_sta[5].umac "#received UDPData:6-38 on ift[101] at: " 1.285116090913
scalar MixedNetwork.slo_sender_sta[6].umac "#sent UDPData:7-28 on ift[100] at: " 1.286647877722
scalar MixedNetwork.slo_sender_sta[6].lmac[0].mac.hcf "#transmission UDPData:7-28 tried for " 0
scalar MixedNetwork.ap.umac "#received UDPData:7-28 on ift[100] at: " 1.286856237882
scalar MixedNetwork.ap.umac "#sent UDPData:7-28 on ift[100] at: " 1.286856237882
scalar MixedNetwork.ap.lmac[0].mac.hcf "#transmission UDPData:7-28 tried for " 0
scalar MixedNetwork.slo_receiver_sta[6].umac "#received UDPData:7-28 on ift[100] at: " 1.287194367013
scalar MixedNetwork.slo_sender_sta[4].umac "#sent UDPData:5-42 on ift[100] at: " 1.287545266082
scalar MixedNetwork.slo_sender_sta[4].lmac[0].mac.hcf "#transmission UDPData:5-42 tried for " 0
scalar MixedNetwork.ap.umac "#received UDPData:5-42 on ift[100] at: " 1.28775364764
scalar MixedNetwork.ap.umac "#sent UDPData:5-42 on ift[100] at: " 1.28775364764
scalar MixedNetwork.ap.lmac[0].mac.hcf "#transmission UDPData:5-42 tried for " 0
scalar MixedNetwork.slo_receiver_sta[4].umac "#received UDPData:5-42 on ift[100] at: " 1.288182065837
scalar MixedNetwork.slo_sender_sta[6].umac "#sent UDPData:7-29 on ift[100] at: " 1.290965267432
scalar MixedNetwork.slo_sender_sta[6].lmac[0].mac.hcf "#transmission UDPData:7-29 tried for " 0
scalar MixedNetwork.slo_sender_sta[6].umac "#sent UDPData:7-30 on ift[100] at: " 1.291080843886
scalar MixedNetwork.ap.umac "#received UDPData:7-29 on ift[100] at: " 1.291173627486
scalar MixedNetwork.ap.umac "#sent UDPData:7-29 on ift[100] at: " 1.291173627486
scalar MixedNetwork.ap.lmac[0].mac.hcf "#transmission UDPData:7-29 tried for " 0
scalar MixedNetwork.slo_receiver_sta[6].umac "#received UDPData:7-29 on ift[100] at: " 1.291538756709
scalar MixedNetwork.slo_sender_sta[6].lmac[0].mac.hcf "#transmission UDPData:7-30 tried for " 0
scalar MixedNetwork.ap.umac "#received UDPData:7-30 on ift[100] at: " 1.291859585294
scalar MixedNetwork.ap.umac "#sent UDPData:7-30 on ift[100] at: " 1.291859585294
scalar MixedNetwork.ap.lmac[0].mac.hcf "#transmission UDPData:7-30 tried for " 0
scalar MixedNetwork.slo_receiver_sta[6].umac "#received UDPData:7-30 on ift[100] at: " 1.292242714532
scalar MixedNetwork.slo_sender_sta[5].umac "#sent UDPData:6-39 on ift[101] at: " 1.292971063181
scalar MixedNetwork.slo_sender_sta[5].lmac[1].mac.hcf "#transmission UDPData:6-39 tried for " 0
scalar MixedNetwork.ap.umac "#received UDPData:6-39 on ift[101] at: " 1.293091627476
scalar MixedNetwork.ap.umac "#sent UDPData:6-39 on ift[101] at: " 1.293091627476
scalar MixedNetwork.ap.lmac[1].mac.hcf "#transmission UDPData:6-39 tried for " 0
scalar MixedNetwork.slo_receiver_sta[5].umac "#received UDPData:6-39 on ift[101] at: " 1.293378018541
scalar MixedNetwork.slo_sender_sta[4].umac "#sent UDPData:5-43 on ift[100] at: " 1.294100537174
scalar MixedNetwork.slo_sender_sta[4].lmac[0].mac.hcf "#transmission UDPData:5-43 tried for " 0
scalar MixedNetwork.ap.umac "#received UDPData:5-43 on ift[100] at: " 1.294308918803
scalar MixedNetwork.ap.umac "#sent UDPData:5-43 on ift[100] at: " 1.294308918803
scalar MixedNetwork.ap.lmac[0].mac.hcf "#transmission UDPData:5-43 tried for " 0
scalar MixedNetwork.slo_receiver_sta[4].umac "#received UDPData:5-43 on ift[100] at: " 1.294692336873
scalar MixedNetwork.slo_sender_sta[5].umac "#sent UDPData:6-40 on ift[101] at: " 1.29685878528
scalar MixedNetwork.slo_sender_sta[5].lmac[1].mac.hcf "#transmission UDPData:6-40 tried for " 0
scalar MixedNetwork.ap.umac "#received UDPData:6-40 on ift[101] at: " 1.296979349625
scalar MixedNetwork.ap.umac "#sent UDPData:6-40 on ift[101] at: " 1.296979349625
scalar MixedNetwork.ap.lmac[1].mac.hcf "#transmission UDPData:6-40 tried for " 0
scalar MixedNetwork.slo_receiver_sta[5].umac "#received UDPData:6-40 on ift[101] at: " 1.297328740616
scalar MixedNetwork.slo_sender_sta[6].umac "#sent UDPData:7-31 on ift[100] at: " 1.304881022866
scalar MixedNetwork.slo_sender_sta[6].lmac[0].mac.hcf "#transmission UDPData:7-31 tried for " 0
scalar MixedNetwork.ap.umac "#received UDPData:7-31 on ift[100] at: " 1.305089382579
scalar MixedNetwork.ap.umac "#sent UDPData:7-31 on ift[100] at: " 1.305089382579
scalar MixedNetwork.ap.lmac[0].mac.hcf "#transmission UDPData:7-31 tried for " 0
scalar MixedNetwork.slo_receiver_sta[6].umac "#received UDPData:7-31 on ift[100] at: " 1.305436512099
scalar MixedNetwork.slo_sender_sta[6].umac "#sent UDPData:7-32 on ift[100] at: " 1.305660435865
scalar MixedNetwork.slo_sender_sta[6].lmac[0].mac.hcf "#transmission UDPData:7-32 tried for " 0
scalar MixedNetwork.ap.umac "#received UDPData:7-32 on ift[100] at: " 1.305868795559
scalar MixedNetwork.ap.umac "#sent UDPData:7-32 on ift[100] at: " 1.305868795559
scalar MixedNetwork.ap.lmac[0].mac.hcf "#transmission UDPData:7-32 tried for " 0
scalar MixedNetwork.slo_receiver_sta[6].umac "#received UDPData:7-32 on ift[100] at: " 1.306233925096
scalar MixedNetwork.slo_sender_sta[4].umac "#sent UDPData:5-44 on ift[100] at: " 1.306463474841
scalar MixedNetwork.slo_sender_sta[4].lmac[0].mac.hcf "#transmission UDPData:5-44 tried for " 0
scalar MixedNetwork.ap.umac "#received UDPData:5-44 on ift[100] at: " 1.306671856605
scalar MixedNetwork.ap.umac "#sent UDPData:5-44 on ift[100] at: " 1.306671856605
scalar MixedNetwork.ap.lmac[0].mac.hcf "#transmission UDPData:5-44 tried for " 0
scalar MixedNetwork.slo_receiver_sta[4].umac "#received UDPData:5-44 on ift[100] at: " 1.307091274433
scalar MixedNetwork.slo_sender_sta[5].umac "#sent UDPData:6-41 on ift[101] at: " 1.308096773589
scalar MixedNetwork.slo_sender_sta[5].lmac[1].mac.hcf "#transmission UDPData:6-41 tried for " 0
scalar MixedNetwork.ap.umac "#received UDPData:6-41 on ift[101] at: " 1.308217338077
scalar MixedNetwork.ap.umac "#sent UDPData:6-41 on ift[101] at: " 1.308217338077
scalar MixedNetwork.ap.lmac[1].mac.hcf "#transmission UDPData:6-41 tried for " 0
scalar MixedNetwork.slo_receiver_sta[5].umac "#received UDPData:6-41 on ift[101] at: " 1.308512728861
scalar MixedNetwork.slo_sender_sta[6].umac "#sent UDPData:7-33 on ift[100] at: " 1.316056007465
scalar MixedNetwork.slo_sender_sta[6].lmac[0].mac.hcf "#transmission UDPData:7-33 tried for " 0
scalar MixedNetwork.ap.umac "#received UDPData:7-33 on ift[100] at: " 1.316264366905
scalar MixedNetwork.ap.umac "#sent UDPData:7-33 on ift[100] at: " 1.316264366905
scalar MixedNetwork.ap.lmac[0].mac.hcf "#transmission UDPData:7-33 tried for " 0
scalar MixedNetwork.slo_receiver_sta[6].umac "#received UDPData:7-33 on ift[100] at: " 1.316674496665
scalar MixedNetwork.slo_sender_sta[4].umac "#sent UDPData:5-45 on ift[100] at: " 1.319936001159
scalar MixedNetwork.slo_sender_sta[4].lmac[0].mac.hcf "#transmission UDPData:5-45 tried for " 0
scalar MixedNetwork.ap.umac "#received UDPData:5-45 on ift[100] at: " 1.32014438307
scalar MixedNetwork.ap.umac "#sent UDPData:5-45 on ift[100] at: " 1.32014438307
scalar MixedNetwork.ap.lmac[0].mac.hcf "#transmission UDPData:5-45 tried for " 0
scalar MixedNetwork.slo_sender_sta[6].umac "#sent UDPData:7-34 on ift[100] at: " 1.320390261463
scalar MixedNetwork.slo_receiver_sta[4].umac "#received UDPData:5-45 on ift[100] at: " 1.320545800635
scalar MixedNetwork.slo_sender_sta[6].lmac[0].mac.hcf "#transmission UDPData:7-34 tried for " 0
scalar MixedNetwork.ap.umac "#received UDPData:7-34 on ift[100] at: " 1.320947399416
scalar MixedNetwork.ap.umac "#sent UDPData:7-34 on ift[100] at: " 1.320947399416
scalar MixedNetwork.ap.lmac[0].mac.hcf "#transmission UDPData:7-34 tried for " 0
scalar MixedNetwork.slo_receiver_sta[6].umac "#received UDPData:7-34 on ift[100] at: " 1.321375529277
scalar MixedNetwork.slo_sender_sta[6].umac "#sent UDPData:7-35 on ift[100] at: " 1.322087033298
scalar MixedNetwork.slo_sender_sta[6].lmac[0].mac.hcf "#transmission UDPData:7-35 tried for " 0
scalar MixedNetwork.ap.umac "#received UDPData:7-35 on ift[100] at: " 1.32229539259
scalar MixedNetwork.ap.umac "#sent UDPData:7-35 on ift[100] at: " 1.32229539259
scalar MixedNetwork.ap.lmac[0].mac.hcf "#transmission UDPData:7-35 tried for " 0
scalar MixedNetwork.slo_receiver_sta[6].umac "#received UDPData:7-35 on ift[100] at: " 1.32273252248
scalar MixedNetwork.slo_sender_sta[6].umac "#sent UDPData:7-36 on ift[100] at: " 1.32525163068
scalar MixedNetwork.slo_sender_sta[6].lmac[0].mac.hcf "#transmission UDPData:7-36 tried for " 0
scalar MixedNetwork.ap.umac "#received UDPData:7-36 on ift[100] at: " 1.325459989894
scalar MixedNetwork.ap.umac "#sent UDPData:7-36 on ift[100] at: " 1.325459989894
scalar MixedNetwork.ap.lmac[0].mac.hcf "#transmission UDPData:7-36 tried for " 0
scalar MixedNetwork.slo_receiver_sta[6].umac "#received UDPData:7-36 on ift[100] at: " 1.325789119849
scalar MixedNetwork.slo_sender_sta[5].umac "#sent UDPData:6-42 on ift[101] at: " 1.325968555319
scalar MixedNetwork.slo_sender_sta[5].lmac[1].mac.hcf "#transmission UDPData:6-42 tried for " 0
scalar MixedNetwork.ap.umac "#received UDPData:6-42 on ift[101] at: " 1.326089120036
scalar MixedNetwork.ap.umac "#sent UDPData:6-42 on ift[101] at: " 1.326089120036
scalar MixedNetwork.ap.lmac[1].mac.hcf "#transmission UDPData:6-42 tried for " 0
scalar MixedNetwork.slo_receiver_sta[5].umac "#received UDPData:6-42 on ift[101] at: " 1.326357510489
scalar MixedNetwork.slo_sender_sta[5].umac "#sent UDPData:6-43 on ift[101] at: " 1.327553253386
scalar MixedNetwork.slo_sender_sta[5].lmac[1].mac.hcf "#transmission UDPData:6-43 tried for " 0
scalar MixedNetwork.ap.umac "#received UDPData:6-43 on ift[101] at: " 1.327673818123
scalar MixedNetwork.ap.umac "#sent UDPData:6-43 on ift[101] at: " 1.327673818123
scalar MixedNetwork.ap.lmac[1].mac.hcf "#transmission UDPData:6-43 tried for " 0
scalar MixedNetwork.slo_receiver_sta[5].umac "#received UDPData:6-43 on ift[101] at: " 1.327978208546
scalar MixedNetwork.slo_sender_sta[4].umac "#sent UDPData:5-46 on ift[100] at: " 1.32913414628
scalar MixedNetwork.slo_sender_sta[4].lmac[0].mac.hcf "#transmission UDPData:5-46 tried for " 0
scalar MixedNetwork.ap.umac "#received UDPData:5-46 on ift[100] at: " 1.329342528292
scalar MixedNetwork.ap.umac "#sent UDPData:5-46 on ift[100] at: " 1.329342528292
scalar MixedNetwork.ap.lmac[0].mac.hcf "#transmission UDPData:5-46 tried for " 0
scalar MixedNetwork.slo_receiver_sta[4].umac "#received UDPData:5-46 on ift[100] at: " 1.329761945678
scalar MixedNetwork.slo_sender_sta[5].umac "#sent UDPData:6-44 on ift[101] at: " 1.330968422645
scalar MixedNetwork.slo_sender_sta[5].lmac[1].mac.hcf "#transmission UDPData:6-44 tried for " 0
scalar MixedNetwork.ap.umac "#received UDPData:6-44 on ift[101] at: " 1.331088987426
scalar MixedNetwork.ap.umac "#sent UDPData:6-44 on ift[101] at: " 1.331088987426
scalar MixedNetwork.slo_sender_sta[5].umac "#sent UDPData:6-45 on ift[101] at: " 1.331244735702
scalar MixedNetwork.slo_sender_sta[5].lmac[1].mac.hcf "#transmission UDPData:6-45 tried for " 0
scalar MixedNetwork.ap.umac "#received UDPData:6-45 on ift[101] at: " 1.331365300486
scalar MixedNetwork.ap.umac "#sent UDPData:6-45 on ift[101] at: " 1.331365300486
scalar MixedNetwork.ap.lmac[1].mac.hcf "#transmission UDPData:6-44 tried for " 0
scalar MixedNetwork.slo_receiver_sta[5].umac "#received UDPData:6-44 on ift[101] at: " 1.331615690842
scalar MixedNetwork.ap.lmac[1].mac.hcf "#transmission UDPData:6-45 tried for " 0
scalar MixedNetwork.slo_receiver_sta[5].umac "#received UDPData:6-45 on ift[101] at: " 1.332152471541
scalar MixedNetwork.slo_sender_sta[5].umac "#sent UDPData:6-46 on ift[101] at: " 1.33572680255
scalar MixedNetwork.slo_sender_sta[5].lmac[1].mac.hcf "#transmission UDPData:6-46 tried for " 0
scalar MixedNetwork.ap.umac "#received UDPData:6-46 on ift[101] at: " 1.335847367392
scalar MixedNetwork.ap.umac "#sent UDPData:6-46 on ift[101] at: " 1.335847367392
scalar MixedNetwork.ap.lmac[1].mac.hcf "#transmission UDPData:6-46 tried for " 0
scalar MixedNetwork.slo_sender_sta[6].umac "#sent UDPData:7-37 on ift[100] at: " 1.336090486847
scalar MixedNetwork.slo_sender_sta[6].lmac[0].mac.hcf "#transmission UDPData:7-37 tried for " 0
scalar MixedNetwork.slo_receiver_sta[5].umac "#received UDPData:6-46 on ift[101] at: " 1.336115757664
scalar MixedNetwork.ap.umac "#received UDPData:7-37 on ift[100] at: " 1.336298845796
scalar MixedNetwork.ap.umac "#sent UDPData:7-37 on ift[100] at: " 1.336298845796
scalar MixedNetwork.ap.lmac[0].mac.hcf "#transmission UDPData:7-37 tried for " 0
scalar MixedNetwork.slo_receiver_sta[6].umac "#received UDPData:7-37 on ift[100] at: " 1.336663975984
scalar MixedNetwork.slo_sender_sta[5].umac "#sent UDPData:6-47 on ift[101] at: " 1.337279219238
scalar MixedNetwork.slo_sender_sta[5].lmac[1].mac.hcf "#transmission UDPData:6-47 tried for " 0
scalar MixedNetwork.ap.umac "#received UDPData:6-47 on ift[101] at: " 1.3373997841
scalar MixedNetwork.ap.umac "#sent UDPData:6-47 on ift[101] at: " 1.3373997841
scalar MixedNetwork.slo_sender_sta[6].umac "#sent UDPData:7-38 on ift[100] at: " 1.337455851561
scalar MixedNetwork.slo_sender_sta[6].lmac[0].mac.hcf "#transmission UDPData:7-38 tried for " 0
scalar MixedNetwork.ap.lmac[1].mac.hcf "#transmission UDPData:6-47 tried for " 0
scalar MixedNetwork.ap.umac "#received UDPData:7-38 on ift[100] at: " 1.337664210477
scalar MixedNetwork.ap.umac "#sent UDPData:7-38 on ift[100] at: " 1.337664210477
scalar MixedNetwork.slo_receiver_sta[5].umac "#received UDPData:6-47 on ift[101] at: " 1.337668174344
scalar MixedNetwork.ap.lmac[0].mac.hcf "#transmission UDPData:7-38 tried for " 0
scalar MixedNetwork.slo_receiver_sta[6].umac "#received UDPData:7-38 on ift[100] at: " 1.338101340696
scalar MixedNetwork.slo_sender_sta[5].umac "#sent UDPData:6-48 on ift[101] at: " 1.343339294046
scalar MixedNetwork.slo_sender_sta[5].lmac[1].mac.hcf "#transmission UDPData:6-48 tried for " 0
scalar MixedNetwork.ap.umac "#received UDPData:6-48 on ift[101] at: " 1.343459858985
scalar MixedNetwork.ap.umac "#sent UDPData:6-48 on ift[101] at: " 1.343459858985
scalar MixedNetwork.ap.lmac[1].mac.hcf "#transmission UDPData:6-48 tried for " 0
scalar MixedNetwork.slo_receiver_sta[5].umac "#received UDPData:6-48 on ift[101] at: " 1.343782249115
scalar MixedNetwork.slo_sender_sta[6].umac "#sent UDPData:7-39 on ift[100] at: " 1.34435167117
scalar MixedNetwork.slo_sender_sta[6].lmac[0].mac.hcf "#transmission UDPData:7-39 tried for " 0
scalar MixedNetwork.ap.umac "#received UDPData:7-39 on ift[100] at: " 1.344560029917
scalar MixedNetwork.ap.umac "#sent UDPData:7-39 on ift[100] at: " 1.344560029917
scalar MixedNetwork.ap.lmac[0].mac.hcf "#transmission UDPData:7-39 tried for " 0
scalar MixedNetwork.slo_receiver_sta[6].umac "#received UDPData:7-39 on ift[100] at: " 1.344952160283
scalar MixedNetwork.slo_sender_sta[6].umac "#sent UDPData:7-40 on ift[100] at: " 1.349953217018
[...]
scalar MixedNetwork.ap.lmac[0].mac.hcf "#transmission UDPData:0-181 tried for " 0
scalar MixedNetwork.slo_receiver_sta[5].umac "#received UDPData:6-256 on ift[101] at: " 2.600927127304
scalar MixedNetwork.sta2.umac "#received UDPData:0-181 on ift[100] at: " 2.601061813582
scalar MixedNetwork.ap.lmac[0].mac.hcf "#transmission UDPData:1-125 tried for " 0
scalar MixedNetwork.slo_receiver_sta[0].umac "#received UDPData:1-125 on ift[100] at: " 2.601719800119
scalar MixedNetwork.slo_sender_sta[2].umac "#sent UDPData:3-174 on ift[100] at: " 2.601855933995
scalar MixedNetwork.slo_sender_sta[2].lmac[0].mac.hcf "#transmission UDPData:3-174 tried for " 0
scalar MixedNetwork.ap.umac "#received UDPData:3-174 on ift[100] at: " 2.60215791825
scalar MixedNetwork.ap.umac "#sent UDPData:3-174 on ift[100] at: " 2.60215791825
scalar MixedNetwork.slo_sender_sta[1].umac "#sent UDPData:2-99 on ift[101] at: " 2.602256382911
scalar MixedNetwork.slo_sender_sta[1].lmac[1].mac.hcf "#transmission UDPData:2-99 tried for " 0
scalar MixedNetwork.slo_sender_sta[5].umac "#sent UDPData:6-257 on ift[101] at: " 2.602260645729
scalar MixedNetwork.ap.lmac[0].mac.hcf "#transmission UDPData:3-174 tried for " 0
scalar MixedNetwork.ap.umac "#received UDPData:2-99 on ift[101] at: " 2.60237656098
scalar MixedNetwork.ap.umac "#sent UDPData:2-99 on ift[101] at: " 2.60237656098
scalar MixedNetwork.ap.lmac[1].mac.hcf "#transmission UDPData:2-99 tried for " 0
scalar MixedNetwork.slo_receiver_sta[2].umac "#received UDPData:3-174 on ift[100] at: " 2.602541280365
scalar MixedNetwork.slo_receiver_sta[1].umac "#received UDPData:2-99 on ift[101] at: " 2.602618021039
scalar MixedNetwork.slo_sender_sta[0].umac "#sent UDPData:1-126 on ift[100] at: " 2.6026412481
scalar MixedNetwork.slo_sender_sta[5].lmac[1].mac.hcf "#transmission UDPData:6-257 tried for " 0
scalar MixedNetwork.slo_sender_sta[0].lmac[0].mac.hcf "#transmission UDPData:1-126 tried for " 0
scalar MixedNetwork.ap.umac "#received UDPData:6-257 on ift[101] at: " 2.602851126268
scalar MixedNetwork.ap.umac "#sent UDPData:6-257 on ift[101] at: " 2.602851126268
scalar MixedNetwork.ap.umac "#received UDPData:1-126 on ift[100] at: " 2.602961269323
scalar MixedNetwork.ap.umac "#sent UDPData:1-126 on ift[100] at: " 2.602961269323
scalar MixedNetwork.ap.lmac[1].mac.hcf "#transmission UDPData:6-257 tried for " 0
scalar MixedNetwork.slo_receiver_sta[5].umac "#received UDPData:6-257 on ift[101] at: " 2.603173494304
scalar MixedNetwork.ap.lmac[0].mac.hcf "#transmission UDPData:1-126 tried for " 0
scalar MixedNetwork.slo_receiver_sta[0].umac "#received UDPData:1-126 on ift[100] at: " 2.603389434791
scalar MixedNetwork.slo_sender_sta[2].umac "#sent UDPData:3-175 on ift[100] at: " 2.604557159363
scalar MixedNetwork.slo_sender_sta[2].lmac[0].mac.hcf "#transmission UDPData:3-175 tried for " 0
scalar MixedNetwork.ap.umac "#received UDPData:3-175 on ift[100] at: " 2.604765641167
scalar MixedNetwork.ap.umac "#sent UDPData:3-175 on ift[100] at: " 2.604765641167
scalar MixedNetwork.slo_sender_sta[4].umac "#sent UDPData:5-245 on ift[100] at: " 2.604772328338
scalar MixedNetwork.slo_sender_sta[4].lmac[0].mac.hcf "#transmission UDPData:5-245 tried for " 0
scalar MixedNetwork.ap.umac "#received UDPData:5-245 on ift[100] at: " 2.60507743639
scalar MixedNetwork.ap.umac "#sent UDPData:5-245 on ift[100] at: " 2.60507743639
scalar MixedNetwork.ap.lmac[0].mac.hcf "#transmission UDPData:3-175 tried for " 0
scalar MixedNetwork.slo_receiver_sta[2].umac "#received UDPData:3-175 on ift[100] at: " 2.605460798567
scalar MixedNetwork.slo_sender_sta[5].umac "#sent UDPData:6-258 on ift[101] at: " 2.605737723303
scalar MixedNetwork.slo_sender_sta[5].lmac[1].mac.hcf "#transmission UDPData:6-258 tried for " 0
scalar MixedNetwork.ap.umac "#received UDPData:6-258 on ift[101] at: " 2.605858305444
scalar MixedNetwork.ap.umac "#sent UDPData:6-258 on ift[101] at: " 2.605858305444
scalar MixedNetwork.ap.lmac[0].mac.hcf "#transmission UDPData:5-245 tried for " 0
scalar MixedNetwork.ap.lmac[1].mac.hcf "#transmission UDPData:6-258 tried for " 0
scalar MixedNetwork.slo_receiver_sta[5].umac "#received UDPData:6-258 on ift[101] at: " 2.606099673432
scalar MixedNetwork.slo_receiver_sta[4].umac "#received UDPData:5-245 on ift[100] at: " 2.606127829995
scalar MixedNetwork.slo_sender_sta[4].umac "#sent UDPData:5-246 on ift[100] at: " 2.606199678123
scalar MixedNetwork.slo_sender_sta[4].lmac[0].mac.hcf "#transmission UDPData:5-246 tried for " 0
scalar MixedNetwork.slo_sender_sta[2].umac "#sent UDPData:3-176 on ift[100] at: " 2.606373925336
scalar MixedNetwork.ap.umac "#received UDPData:5-246 on ift[100] at: " 2.60651156151
scalar MixedNetwork.ap.umac "#sent UDPData:5-246 on ift[100] at: " 2.60651156151
scalar MixedNetwork.slo_sender_sta[2].lmac[0].mac.hcf "#transmission UDPData:3-176 tried for " 0
scalar MixedNetwork.ap.umac "#received UDPData:3-176 on ift[100] at: " 2.606823525126
scalar MixedNetwork.ap.umac "#sent UDPData:3-176 on ift[100] at: " 2.606823525126
scalar MixedNetwork.slo_sender_sta[5].umac "#sent UDPData:6-259 on ift[101] at: " 2.606875151658
scalar MixedNetwork.slo_sender_sta[5].lmac[1].mac.hcf "#transmission UDPData:6-259 tried for " 0
scalar MixedNetwork.slo_sender_sta[0].umac "#sent UDPData:1-127 on ift[100] at: " 2.606900951721
scalar MixedNetwork.slo_sender_sta[0].lmac[0].mac.hcf "#transmission UDPData:1-127 tried for " 0
scalar MixedNetwork.ap.umac "#received UDPData:6-259 on ift[101] at: " 2.606995733815
scalar MixedNetwork.ap.umac "#sent UDPData:6-259 on ift[101] at: " 2.606995733815
scalar MixedNetwork.ap.lmac[1].mac.hcf "#transmission UDPData:6-259 tried for " 0
scalar MixedNetwork.ap.umac "#received UDPData:1-127 on ift[100] at: " 2.607144478547
scalar MixedNetwork.ap.umac "#sent UDPData:1-127 on ift[100] at: " 2.607144478547
scalar MixedNetwork.slo_receiver_sta[5].umac "#received UDPData:6-259 on ift[101] at: " 2.607255101784
scalar MixedNetwork.ap.lmac[0].mac.hcf "#transmission UDPData:5-246 tried for " 0
scalar MixedNetwork.slo_receiver_sta[4].umac "#received UDPData:5-246 on ift[100] at: " 2.607545872127
scalar MixedNetwork.ap.lmac[0].mac.hcf "#transmission UDPData:3-176 tried for " 0
scalar MixedNetwork.slo_receiver_sta[2].umac "#received UDPData:3-176 on ift[100] at: " 2.608140840781
scalar MixedNetwork.slo_sender_sta[5].umac "#sent UDPData:6-260 on ift[101] at: " 2.608170904515
scalar MixedNetwork.slo_sender_sta[5].lmac[1].mac.hcf "#transmission UDPData:6-260 tried for " 0
scalar MixedNetwork.ap.umac "#received UDPData:6-260 on ift[101] at: " 2.608291486691
scalar MixedNetwork.ap.umac "#sent UDPData:6-260 on ift[101] at: " 2.608291486691
scalar MixedNetwork.sta1.umac "#sent UDPData:0-182 on ift[100] at: " 2.608296252531
scalar MixedNetwork.sta1.umac "#sent UDPData:0-182 on ift[101] at: " 2.608296252531
scalar MixedNetwork.ap.lmac[1].mac.hcf "#transmission UDPData:6-260 tried for " 0
scalar MixedNetwork.slo_receiver_sta[5].umac "#received UDPData:6-260 on ift[101] at: " 2.608523854639
scalar MixedNetwork.sta1.lmac[0].mac.hcf "#transmission UDPData:0-182 tried for " 0
scalar MixedNetwork.ap.umac "#received UDPData:0-182 on ift[100] at: " 2.608736765304
scalar MixedNetwork.ap.umac "#sent UDPData:0-182 on ift[100] at: " 2.608736765304
scalar MixedNetwork.ap.umac "#sent UDPData:0-182 on ift[101] at: " 2.608736765304
scalar MixedNetwork.ap.lmac[1].mac.hcf "#transmission UDPData:0-182 tried for " 0
scalar MixedNetwork.sta2.umac "#received UDPData:0-182 on ift[101] at: " 2.608856944507
scalar MixedNetwork.ap.lmac[0].mac.hcf "#transmission UDPData:1-127 tried for " 0
scalar MixedNetwork.slo_sender_sta[6].umac "#sent UDPData:7-222 on ift[100] at: " 2.608957414126
scalar MixedNetwork.sta1.lmac[1].mac.hcf "#transmission UDPData:0-182 tried for " 0
scalar MixedNetwork.slo_sender_sta[6].umac "#sent UDPData:7-223 on ift[100] at: " 2.609082914166
scalar MixedNetwork.slo_receiver_sta[0].umac "#received UDPData:1-127 on ift[100] at: " 2.609092930637
scalar MixedNetwork.ap.umac "#received UDPData:0-182 on ift[101] at: " 2.609107996418
scalar MixedNetwork.slo_sender_sta[6].lmac[0].mac.hcf "#transmission UDPData:7-222 tried for " 0
scalar MixedNetwork.ap.umac "#received UDPData:7-222 on ift[100] at: " 2.609688682704
scalar MixedNetwork.ap.umac "#sent UDPData:7-222 on ift[100] at: " 2.609688682704
scalar MixedNetwork.slo_sender_sta[6].lmac[0].mac.hcf "#transmission UDPData:7-223 tried for " 0
scalar MixedNetwork.ap.umac "#received UDPData:7-223 on ift[100] at: " 2.61028368269
scalar MixedNetwork.ap.umac "#sent UDPData:7-223 on ift[100] at: " 2.61028368269
scalar MixedNetwork.ap.lmac[0].mac.hcf "#transmission UDPData:0-182 tried for " 0
scalar MixedNetwork.slo_sender_sta[4].umac "#sent UDPData:5-247 on ift[100] at: " 2.610532735471
scalar MixedNetwork.sta2.umac "#received UDPData:0-182 on ift[100] at: " 2.610729861946
scalar MixedNetwork.slo_sender_sta[6].umac "#sent UDPData:7-224 on ift[100] at: " 2.610842494506
scalar MixedNetwork.slo_sender_sta[4].umac "#sent UDPData:5-248 on ift[100] at: " 2.61108097248
scalar MixedNetwork.ap.lmac[0].mac.hcf "#transmission UDPData:7-222 tried for " 0
scalar MixedNetwork.slo_receiver_sta[6].umac "#received UDPData:7-222 on ift[100] at: " 2.611333842492
scalar MixedNetwork.slo_sender_sta[4].lmac[0].mac.hcf "#transmission UDPData:5-247 tried for " 0
scalar MixedNetwork.slo_sender_sta[6].lmac[0].mac.hcf "#transmission UDPData:7-224 tried for " 0
scalar MixedNetwork.slo_sender_sta[6].lmac[0].mac.hcf "#transmission UDPData:7-224 tried for " 0
scalar MixedNetwork.ap.umac "#received UDPData:7-224 on ift[100] at: " 2.61228564258
scalar MixedNetwork.ap.umac "#sent UDPData:7-224 on ift[100] at: " 2.61228564258
scalar MixedNetwork.slo_sender_sta[4].lmac[0].mac.hcf "#transmission UDPData:5-247 tried for " 0
scalar MixedNetwork.ap.umac "#received UDPData:5-247 on ift[100] at: " 2.612678438006
scalar MixedNetwork.ap.umac "#sent UDPData:5-247 on ift[100] at: " 2.612678438006
scalar MixedNetwork.slo_sender_sta[1].umac "#sent UDPData:2-100 on ift[101] at: " 2.612817483573
scalar MixedNetwork.slo_sender_sta[1].lmac[1].mac.hcf "#transmission UDPData:2-100 tried for " 0
scalar MixedNetwork.ap.umac "#received UDPData:2-100 on ift[101] at: " 2.612937661614
scalar MixedNetwork.ap.umac "#sent UDPData:2-100 on ift[101] at: " 2.612937661614
scalar MixedNetwork.slo_sender_sta[6].umac "#sent UDPData:7-225 on ift[100] at: " 2.612996364834
scalar MixedNetwork.slo_sender_sta[4].umac "#sent UDPData:5-249 on ift[100] at: " 2.613090977465
scalar MixedNetwork.slo_sender_sta[4].lmac[0].mac.hcf "#transmission UDPData:5-248 tried for " 0
scalar MixedNetwork.ap.lmac[0].mac.hcf "#transmission UDPData:7-223 tried for " 0
scalar MixedNetwork.ap.lmac[1].mac.hcf "#transmission UDPData:2-100 tried for " 0
scalar MixedNetwork.slo_receiver_sta[1].umac "#received UDPData:2-100 on ift[101] at: " 2.613287121619
scalar MixedNetwork.slo_sender_sta[3].umac "#sent UDPData:4-158 on ift[101] at: " 2.613490445377
scalar MixedNetwork.slo_sender_sta[3].lmac[1].mac.hcf "#transmission UDPData:4-158 tried for " 0
scalar MixedNetwork.slo_sender_sta[6].lmac[0].mac.hcf "#transmission UDPData:7-225 tried for " 0
scalar MixedNetwork.ap.umac "#received UDPData:4-158 on ift[101] at: " 2.613610794078
scalar MixedNetwork.ap.umac "#sent UDPData:4-158 on ift[101] at: " 2.613610794078
scalar MixedNetwork.ap.lmac[1].mac.hcf "#transmission UDPData:4-158 tried for " 0
scalar MixedNetwork.ap.umac "#received UDPData:7-225 on ift[100] at: " 2.613749094888
scalar MixedNetwork.ap.umac "#sent UDPData:7-225 on ift[100] at: " 2.613749094888
scalar MixedNetwork.slo_receiver_sta[3].umac "#received UDPData:4-158 on ift[101] at: " 2.613861060461
scalar MixedNetwork.ap.lmac[0].mac.hcf "#transmission UDPData:7-223 tried for " 0
scalar MixedNetwork.slo_receiver_sta[6].umac "#received UDPData:7-223 on ift[100] at: " 2.614276254763
scalar MixedNetwork.slo_sender_sta[3].umac "#sent UDPData:4-159 on ift[101] at: " 2.614346064791
scalar MixedNetwork.slo_sender_sta[3].lmac[1].mac.hcf "#transmission UDPData:4-159 tried for " 0
scalar MixedNetwork.ap.umac "#received UDPData:4-159 on ift[101] at: " 2.614466413506
scalar MixedNetwork.ap.umac "#sent UDPData:4-159 on ift[101] at: " 2.614466413506
scalar MixedNetwork.ap.lmac[1].mac.hcf "#transmission UDPData:4-159 tried for " 0
scalar MixedNetwork.slo_sender_sta[4].lmac[0].mac.hcf "#transmission UDPData:5-248 tried for " 0
scalar MixedNetwork.slo_receiver_sta[3].umac "#received UDPData:4-159 on ift[101] at: " 2.614761679863
scalar MixedNetwork.slo_sender_sta[6].umac "#sent UDPData:7-226 on ift[100] at: " 2.614772755793
scalar MixedNetwork.ap.umac "#received UDPData:5-248 on ift[100] at: " 2.614881006997
scalar MixedNetwork.ap.umac "#sent UDPData:5-248 on ift[100] at: " 2.614881006997
scalar MixedNetwork.slo_sender_sta[6].lmac[0].mac.hcf "#transmission UDPData:7-226 tried for " 0
scalar MixedNetwork.ap.umac "#received UDPData:7-226 on ift[100] at: " 2.615539663795
scalar MixedNetwork.ap.umac "#sent UDPData:7-226 on ift[100] at: " 2.615539663795
scalar MixedNetwork.ap.lmac[0].mac.hcf "#transmission UDPData:7-224 tried for " 0
scalar MixedNetwork.slo_sender_sta[4].lmac[0].mac.hcf "#transmission UDPData:5-249 tried for " 0
scalar MixedNetwork.slo_sender_sta[4].lmac[0].mac.hcf "#transmission UDPData:5-249 tried for " 0
scalar MixedNetwork.ap.umac "#received UDPData:5-249 on ift[100] at: " 2.616297459314
scalar MixedNetwork.ap.umac "#sent UDPData:5-249 on ift[100] at: " 2.616297459314
scalar MixedNetwork.slo_sender_sta[1].umac "#sent UDPData:2-101 on ift[101] at: " 2.616544842552
scalar MixedNetwork.slo_sender_sta[1].lmac[1].mac.hcf "#transmission UDPData:2-101 tried for " 0
scalar MixedNetwork.ap.umac "#received UDPData:2-101 on ift[101] at: " 2.616665020583
scalar MixedNetwork.ap.umac "#sent UDPData:2-101 on ift[101] at: " 2.616665020583
scalar MixedNetwork.ap.lmac[0].mac.hcf "#transmission UDPData:7-224 tried for " 0
scalar MixedNetwork.slo_receiver_sta[6].umac "#received UDPData:7-224 on ift[100] at: " 2.616887619253
scalar MixedNetwork.ap.lmac[1].mac.hcf "#transmission UDPData:2-101 tried for " 0
scalar MixedNetwork.slo_receiver_sta[1].umac "#received UDPData:2-101 on ift[101] at: " 2.617023480569
scalar MixedNetwork.ap.lmac[0].mac.hcf "#transmission UDPData:5-247 tried for " 0
scalar MixedNetwork.slo_receiver_sta[4].umac "#received UDPData:5-247 on ift[100] at: " 2.617518852717
scalar MixedNetwork.ap.lmac[0].mac.hcf "#transmission UDPData:7-225 tried for " 0
scalar MixedNetwork.slo_receiver_sta[6].umac "#received UDPData:7-225 on ift[100] at: " 2.618239619287
scalar MixedNetwork.slo_sender_sta[1].umac "#sent UDPData:2-102 on ift[101] at: " 2.618353266219
scalar MixedNetwork.slo_sender_sta[1].lmac[1].mac.hcf "#transmission UDPData:2-102 tried for " 0
scalar MixedNetwork.ap.umac "#received UDPData:2-102 on ift[101] at: " 2.618473444245
scalar MixedNetwork.ap.umac "#sent UDPData:2-102 on ift[101] at: " 2.618473444245
scalar MixedNetwork.ap.lmac[1].mac.hcf "#transmission UDPData:2-102 tried for " 0
scalar MixedNetwork.ap.lmac[0].mac.hcf "#transmission UDPData:5-248 tried for " 0
scalar MixedNetwork.slo_receiver_sta[1].umac "#received UDPData:2-102 on ift[101] at: " 2.618813904222
scalar MixedNetwork.sta1.umac "#sent UDPData:0-183 on ift[100] at: " 2.618824935115
scalar MixedNetwork.sta1.umac "#sent UDPData:0-183 on ift[101] at: " 2.618824935115
scalar MixedNetwork.slo_receiver_sta[4].umac "#received UDPData:5-248 on ift[100] at: " 2.618933852692
scalar MixedNetwork.sta1.lmac[1].mac.hcf "#transmission UDPData:0-183 tried for " 0
scalar MixedNetwork.ap.umac "#received UDPData:0-183 on ift[101] at: " 2.619136918106
scalar MixedNetwork.ap.umac "#sent UDPData:0-183 on ift[100] at: " 2.619136918106
scalar MixedNetwork.ap.umac "#sent UDPData:0-183 on ift[101] at: " 2.619136918106
scalar MixedNetwork.ap.lmac[1].mac.hcf "#transmission UDPData:0-183 tried for " 0
scalar MixedNetwork.sta1.lmac[0].mac.hcf "#transmission UDPData:0-183 tried for " 0
scalar MixedNetwork.sta2.umac "#received UDPData:0-183 on ift[101] at: " 2.61936909762
scalar MixedNetwork.ap.umac "#received UDPData:0-183 on ift[100] at: " 2.619575048998
scalar MixedNetwork.ap.lmac[0].mac.hcf "#transmission UDPData:7-226 tried for " 0
scalar MixedNetwork.slo_receiver_sta[6].umac "#received UDPData:7-226 on ift[100] at: " 2.619913209012
scalar MixedNetwork.ap.lmac[0].mac.hcf "#transmission UDPData:5-249 tried for " 0
scalar MixedNetwork.slo_receiver_sta[4].umac "#received UDPData:5-249 on ift[100] at: " 2.620544442348
scalar MixedNetwork.ap.lmac[0].mac.hcf "#transmission UDPData:0-183 tried for " 0
scalar MixedNetwork.sta2.umac "#received UDPData:0-183 on ift[100] at: " 2.621265228566
scalar MixedNetwork.sta1.umac "#sent UDPData:0-184 on ift[100] at: " 2.622407531598
scalar MixedNetwork.sta1.umac "#sent UDPData:0-184 on ift[101] at: " 2.622407531598
scalar MixedNetwork.sta1.lmac[0].mac.hcf "#transmission UDPData:0-184 tried for " 0
scalar MixedNetwork.sta1.lmac[1].mac.hcf "#transmission UDPData:0-184 tried for " 0
scalar MixedNetwork.ap.umac "#received UDPData:0-184 on ift[101] at: " 2.622528014671
scalar MixedNetwork.ap.umac "#sent UDPData:0-184 on ift[100] at: " 2.622528014671
scalar MixedNetwork.ap.umac "#sent UDPData:0-184 on ift[101] at: " 2.622528014671
scalar MixedNetwork.ap.umac "#received UDPData:0-184 on ift[100] at: " 2.622616014671
scalar MixedNetwork.ap.lmac[0].mac.hcf "#transmission UDPData:0-184 tried for " 0
scalar MixedNetwork.ap.lmac[1].mac.hcf "#transmission UDPData:0-184 tried for " 0
scalar MixedNetwork.sta2.umac "#received UDPData:0-184 on ift[101] at: " 2.622877194289
scalar MixedNetwork.sta2.umac "#received UDPData:0-184 on ift[100] at: " 2.622954194289
scalar MixedNetwork.slo_sender_sta[6].umac "#sent UDPData:7-227 on ift[100] at: " 2.623361710934
scalar MixedNetwork.slo_sender_sta[6].lmac[0].mac.hcf "#transmission UDPData:7-227 tried for " 0
scalar MixedNetwork.ap.umac "#received UDPData:7-227 on ift[100] at: " 2.623570039142
scalar MixedNetwork.ap.umac "#sent UDPData:7-227 on ift[100] at: " 2.623570039142
scalar MixedNetwork.ap.lmac[0].mac.hcf "#transmission UDPData:7-227 tried for " 0
scalar MixedNetwork.slo_receiver_sta[6].umac "#received UDPData:7-227 on ift[100] at: " 2.623980199257
scalar MixedNetwork.slo_sender_sta[6].umac "#sent UDPData:7-228 on ift[100] at: " 2.624274827548
scalar MixedNetwork.slo_sender_sta[6].lmac[0].mac.hcf "#transmission UDPData:7-228 tried for " 0
scalar MixedNetwork.slo_sender_sta[6].umac "#sent UDPData:7-229 on ift[100] at: " 2.624357131736
scalar MixedNetwork.ap.umac "#received UDPData:7-228 on ift[100] at: " 2.624483155734
scalar MixedNetwork.ap.umac "#sent UDPData:7-228 on ift[100] at: " 2.624483155734
scalar MixedNetwork.slo_sender_sta[4].umac "#sent UDPData:5-250 on ift[100] at: " 2.624490118274
scalar MixedNetwork.ap.lmac[0].mac.hcf "#transmission UDPData:7-228 tried for " 0
scalar MixedNetwork.slo_receiver_sta[6].umac "#received UDPData:7-228 on ift[100] at: " 2.624803315869
scalar MixedNetwork.slo_sender_sta[4].lmac[0].mac.hcf "#transmission UDPData:5-250 tried for " 0
scalar MixedNetwork.ap.umac "#received UDPData:5-250 on ift[100] at: " 2.625169068648
scalar MixedNetwork.ap.umac "#sent UDPData:5-250 on ift[100] at: " 2.625169068648
scalar MixedNetwork.slo_sender_sta[6].lmac[0].mac.hcf "#transmission UDPData:7-229 tried for " 0
scalar MixedNetwork.slo_sender_sta[3].umac "#sent UDPData:4-160 on ift[101] at: " 2.625307795358
scalar MixedNetwork.slo_sender_sta[3].lmac[1].mac.hcf "#transmission UDPData:4-160 tried for " 0
scalar MixedNetwork.slo_sender_sta[5].umac "#sent UDPData:6-261 on ift[101] at: " 2.625379369549
scalar MixedNetwork.ap.umac "#received UDPData:4-160 on ift[101] at: " 2.62542814424
scalar MixedNetwork.ap.umac "#sent UDPData:4-160 on ift[101] at: " 2.62542814424
scalar MixedNetwork.ap.umac "#received UDPData:7-229 on ift[100] at: " 2.625507724976
scalar MixedNetwork.ap.umac "#sent UDPDat